* SPICE NETLIST
***************************************

.SUBCKT 8_Bit_CSL_Adder VDD GND RESET S0 A0 B0 S1 A1 B1 S2 A2 B2 S3 A3 B3 S4 A4 B4 S5 A5
+ B5 S6 A6 B6 S7 A7 B7
** N=657 EP=27 IP=0 FDC=1276
M0 GND 5 S0 GND NMOS_VTL L=5e-08 W=1e-07 AD=1.2e-14 AS=1.2e-14 PD=4.4e-07 PS=4.4e-07 $X=49850 $Y=49225 $D=1
M1 GND 10 249 GND NMOS_VTL L=5e-08 W=1e-07 AD=1.2e-14 AS=1.2e-14 PD=4.4e-07 PS=4.4e-07 $X=50450 $Y=62980 $D=1
M2 GND 10 9 GND NMOS_VTL L=5e-08 W=1e-07 AD=1.2e-14 AS=1.2e-14 PD=4.4e-07 PS=4.4e-07 $X=50450 $Y=63840 $D=1
M3 510 9 10 GND NMOS_VTL L=5e-08 W=1e-07 AD=1.5e-14 AS=1.2e-14 PD=5e-07 PS=4.4e-07 $X=50450 $Y=64700 $D=1
M4 511 7 510 GND NMOS_VTL L=5e-08 W=1e-07 AD=1.4e-14 AS=1.5e-14 PD=4.8e-07 PS=5e-07 $X=50450 $Y=65100 $D=1
M5 GND 4 511 GND NMOS_VTL L=5e-08 W=1e-07 AD=1.2e-14 AS=1.4e-14 PD=4.4e-07 PS=4.8e-07 $X=50450 $Y=65480 $D=1
M6 GND RESET 7 GND NMOS_VTL L=5e-08 W=1e-07 AD=1.2e-14 AS=1.2e-14 PD=4.4e-07 PS=4.4e-07 $X=50450 $Y=66360 $D=1
M7 GND 4 3 GND NMOS_VTL L=5e-08 W=1e-07 AD=1.2e-14 AS=1.2e-14 PD=4.4e-07 PS=4.4e-07 $X=50450 $Y=67220 $D=1
M8 GND 18 4 GND NMOS_VTL L=5e-08 W=1e-07 AD=1.2e-14 AS=1.2e-14 PD=4.4e-07 PS=4.4e-07 $X=50450 $Y=68080 $D=1
M9 11 3 10 GND NMOS_VTL L=5e-08 W=1e-07 AD=1.2e-14 AS=1.2e-14 PD=4.4e-07 PS=4.4e-07 $X=50450 $Y=68940 $D=1
M10 512 3 GND GND NMOS_VTL L=5e-08 W=1e-07 AD=1.4e-14 AS=1.2e-14 PD=4.8e-07 PS=4.4e-07 $X=50450 $Y=69800 $D=1
M11 8 11 512 GND NMOS_VTL L=5e-08 W=1e-07 AD=1.2e-14 AS=1.4e-14 PD=4.4e-07 PS=4.8e-07 $X=50450 $Y=70180 $D=1
M12 513 7 11 GND NMOS_VTL L=5e-08 W=1e-07 AD=1.5e-14 AS=1.2e-14 PD=5e-07 PS=4.4e-07 $X=50450 $Y=71040 $D=1
M13 GND 8 513 GND NMOS_VTL L=5e-08 W=1e-07 AD=1.2e-14 AS=1.5e-14 PD=4.4e-07 PS=5e-07 $X=50450 $Y=71440 $D=1
M14 250 4 8 GND NMOS_VTL L=5e-08 W=1e-07 AD=1.2e-14 AS=1.2e-14 PD=4.4e-07 PS=4.4e-07 $X=50450 $Y=72300 $D=1
M15 GND 251 250 GND NMOS_VTL L=5e-08 W=1e-07 AD=1.2e-14 AS=1.2e-14 PD=4.4e-07 PS=4.4e-07 $X=50450 $Y=73160 $D=1
M16 GND A0 251 GND NMOS_VTL L=5e-08 W=1e-07 AD=1.2e-14 AS=1.2e-14 PD=4.4e-07 PS=4.4e-07 $X=50450 $Y=74020 $D=1
M17 GND 5 6 GND NMOS_VTL L=5e-08 W=1e-07 AD=1.2e-14 AS=1.2e-14 PD=4.4e-07 PS=4.4e-07 $X=50710 $Y=49225 $D=1
M18 GND 249 253 GND NMOS_VTL L=5e-08 W=1.15e-07 AD=1.61e-14 AS=1.3225e-14 PD=5.1e-07 PS=4.6e-07 $X=50990 $Y=54715 $D=1
M19 GND 249 255 GND NMOS_VTL L=5e-08 W=1.15e-07 AD=1.61e-14 AS=1.3225e-14 PD=5.1e-07 PS=4.6e-07 $X=50990 $Y=57635 $D=1
M20 253 252 GND GND NMOS_VTL L=5e-08 W=1.15e-07 AD=1.61e-14 AS=1.61e-14 PD=5.1e-07 PS=5.1e-07 $X=51370 $Y=54715 $D=1
M21 255 252 GND GND NMOS_VTL L=5e-08 W=1.15e-07 AD=1.61e-14 AS=1.61e-14 PD=5.1e-07 PS=5.1e-07 $X=51370 $Y=57635 $D=1
M22 514 6 5 GND NMOS_VTL L=5e-08 W=1e-07 AD=1.5e-14 AS=1.2e-14 PD=5e-07 PS=4.4e-07 $X=51570 $Y=49225 $D=1
M23 19 VDD 253 GND NMOS_VTL L=5e-08 W=1.15e-07 AD=1.61e-14 AS=1.61e-14 PD=5.1e-07 PS=5.1e-07 $X=51750 $Y=54715 $D=1
M24 20 GND 255 GND NMOS_VTL L=5e-08 W=1.15e-07 AD=1.61e-14 AS=1.61e-14 PD=5.1e-07 PS=5.1e-07 $X=51750 $Y=57635 $D=1
M25 515 17 514 GND NMOS_VTL L=5e-08 W=1e-07 AD=1.4e-14 AS=1.5e-14 PD=4.8e-07 PS=5e-07 $X=51970 $Y=49225 $D=1
M26 516 249 19 GND NMOS_VTL L=5e-08 W=1.15e-07 AD=1.61e-14 AS=1.61e-14 PD=5.1e-07 PS=5.1e-07 $X=52130 $Y=54715 $D=1
M27 517 249 20 GND NMOS_VTL L=5e-08 W=1.15e-07 AD=1.61e-14 AS=1.61e-14 PD=5.1e-07 PS=5.1e-07 $X=52130 $Y=57635 $D=1
M28 GND 14 515 GND NMOS_VTL L=5e-08 W=1e-07 AD=1.2e-14 AS=1.4e-14 PD=4.4e-07 PS=4.8e-07 $X=52350 $Y=49225 $D=1
M29 GND 252 516 GND NMOS_VTL L=5e-08 W=1.15e-07 AD=1.3225e-14 AS=1.61e-14 PD=4.6e-07 PS=5.1e-07 $X=52510 $Y=54715 $D=1
M30 GND 252 517 GND NMOS_VTL L=5e-08 W=1.15e-07 AD=1.3225e-14 AS=1.61e-14 PD=4.6e-07 PS=5.1e-07 $X=52510 $Y=57635 $D=1
M31 GND RESET 17 GND NMOS_VTL L=5e-08 W=1e-07 AD=1.2e-14 AS=1.2e-14 PD=4.4e-07 PS=4.4e-07 $X=53230 $Y=49225 $D=1
M32 258 249 GND GND NMOS_VTL L=5e-08 W=1e-07 AD=1.4e-14 AS=1.15e-14 PD=4.8e-07 PS=4.3e-07 $X=53230 $Y=54745 $D=1
M33 260 249 GND GND NMOS_VTL L=5e-08 W=1e-07 AD=1.4e-14 AS=1.15e-14 PD=4.8e-07 PS=4.3e-07 $X=53230 $Y=57665 $D=1
M34 GND 252 258 GND NMOS_VTL L=5e-08 W=1e-07 AD=1.4e-14 AS=1.4e-14 PD=4.8e-07 PS=4.8e-07 $X=53610 $Y=54745 $D=1
M35 GND 252 260 GND NMOS_VTL L=5e-08 W=1e-07 AD=1.4e-14 AS=1.4e-14 PD=4.8e-07 PS=4.8e-07 $X=53610 $Y=57665 $D=1
M36 258 VDD GND GND NMOS_VTL L=5e-08 W=1e-07 AD=1.15e-14 AS=1.4e-14 PD=4.3e-07 PS=4.8e-07 $X=53990 $Y=54745 $D=1
M37 260 GND GND GND NMOS_VTL L=5e-08 W=1e-07 AD=1.15e-14 AS=1.4e-14 PD=4.3e-07 PS=4.8e-07 $X=53990 $Y=57665 $D=1
M38 GND 14 15 GND NMOS_VTL L=5e-08 W=1e-07 AD=1.2e-14 AS=1.2e-14 PD=4.4e-07 PS=4.4e-07 $X=54090 $Y=49225 $D=1
M39 262 19 258 GND NMOS_VTL L=5e-08 W=9e-08 AD=1.08e-14 AS=1.125e-14 PD=4.2e-07 PS=4.3e-07 $X=54730 $Y=54745 $D=1
M40 263 20 260 GND NMOS_VTL L=5e-08 W=9e-08 AD=1.08e-14 AS=1.125e-14 PD=4.2e-07 PS=4.3e-07 $X=54730 $Y=57665 $D=1
M41 GND 18 14 GND NMOS_VTL L=5e-08 W=1e-07 AD=1.2e-14 AS=1.2e-14 PD=4.4e-07 PS=4.4e-07 $X=54950 $Y=49225 $D=1
M42 518 VDD 262 GND NMOS_VTL L=5e-08 W=1e-07 AD=1.4e-14 AS=1.15e-14 PD=4.8e-07 PS=4.3e-07 $X=55460 $Y=54745 $D=1
M43 519 GND 263 GND NMOS_VTL L=5e-08 W=1e-07 AD=1.4e-14 AS=1.15e-14 PD=4.8e-07 PS=4.3e-07 $X=55460 $Y=57665 $D=1
M44 23 15 5 GND NMOS_VTL L=5e-08 W=1e-07 AD=1.2e-14 AS=1.2e-14 PD=4.4e-07 PS=4.4e-07 $X=55810 $Y=49225 $D=1
M45 520 249 518 GND NMOS_VTL L=5e-08 W=1e-07 AD=1.4e-14 AS=1.4e-14 PD=4.8e-07 PS=4.8e-07 $X=55840 $Y=54745 $D=1
M46 521 249 519 GND NMOS_VTL L=5e-08 W=1e-07 AD=1.4e-14 AS=1.4e-14 PD=4.8e-07 PS=4.8e-07 $X=55840 $Y=57665 $D=1
M47 GND 27 252 GND NMOS_VTL L=5e-08 W=1e-07 AD=1.2e-14 AS=1.2e-14 PD=4.4e-07 PS=4.4e-07 $X=55950 $Y=62980 $D=1
M48 GND 27 26 GND NMOS_VTL L=5e-08 W=1e-07 AD=1.2e-14 AS=1.2e-14 PD=4.4e-07 PS=4.4e-07 $X=55950 $Y=63840 $D=1
M49 522 26 27 GND NMOS_VTL L=5e-08 W=1e-07 AD=1.5e-14 AS=1.2e-14 PD=5e-07 PS=4.4e-07 $X=55950 $Y=64700 $D=1
M50 523 24 522 GND NMOS_VTL L=5e-08 W=1e-07 AD=1.4e-14 AS=1.5e-14 PD=4.8e-07 PS=5e-07 $X=55950 $Y=65100 $D=1
M51 GND 22 523 GND NMOS_VTL L=5e-08 W=1e-07 AD=1.2e-14 AS=1.4e-14 PD=4.4e-07 PS=4.8e-07 $X=55950 $Y=65480 $D=1
M52 GND RESET 24 GND NMOS_VTL L=5e-08 W=1e-07 AD=1.2e-14 AS=1.2e-14 PD=4.4e-07 PS=4.4e-07 $X=55950 $Y=66360 $D=1
M53 GND 22 21 GND NMOS_VTL L=5e-08 W=1e-07 AD=1.2e-14 AS=1.2e-14 PD=4.4e-07 PS=4.4e-07 $X=55950 $Y=67220 $D=1
M54 GND 18 22 GND NMOS_VTL L=5e-08 W=1e-07 AD=1.2e-14 AS=1.2e-14 PD=4.4e-07 PS=4.4e-07 $X=55950 $Y=68080 $D=1
M55 28 21 27 GND NMOS_VTL L=5e-08 W=1e-07 AD=1.2e-14 AS=1.2e-14 PD=4.4e-07 PS=4.4e-07 $X=55950 $Y=68940 $D=1
M56 524 21 GND GND NMOS_VTL L=5e-08 W=1e-07 AD=1.4e-14 AS=1.2e-14 PD=4.8e-07 PS=4.4e-07 $X=55950 $Y=69800 $D=1
M57 25 28 524 GND NMOS_VTL L=5e-08 W=1e-07 AD=1.2e-14 AS=1.4e-14 PD=4.4e-07 PS=4.8e-07 $X=55950 $Y=70180 $D=1
M58 525 24 28 GND NMOS_VTL L=5e-08 W=1e-07 AD=1.5e-14 AS=1.2e-14 PD=5e-07 PS=4.4e-07 $X=55950 $Y=71040 $D=1
M59 GND 25 525 GND NMOS_VTL L=5e-08 W=1e-07 AD=1.2e-14 AS=1.5e-14 PD=4.4e-07 PS=5e-07 $X=55950 $Y=71440 $D=1
M60 264 22 25 GND NMOS_VTL L=5e-08 W=1e-07 AD=1.2e-14 AS=1.2e-14 PD=4.4e-07 PS=4.4e-07 $X=55950 $Y=72300 $D=1
M61 GND 265 264 GND NMOS_VTL L=5e-08 W=1e-07 AD=1.2e-14 AS=1.2e-14 PD=4.4e-07 PS=4.4e-07 $X=55950 $Y=73160 $D=1
M62 GND B0 265 GND NMOS_VTL L=5e-08 W=1e-07 AD=1.2e-14 AS=1.2e-14 PD=4.4e-07 PS=4.4e-07 $X=55950 $Y=74020 $D=1
M63 GND 252 520 GND NMOS_VTL L=5e-08 W=1e-07 AD=1.15e-14 AS=1.4e-14 PD=4.3e-07 PS=4.8e-07 $X=56220 $Y=54745 $D=1
M64 GND 252 521 GND NMOS_VTL L=5e-08 W=1e-07 AD=1.15e-14 AS=1.4e-14 PD=4.3e-07 PS=4.8e-07 $X=56220 $Y=57665 $D=1
M65 526 15 GND GND NMOS_VTL L=5e-08 W=1e-07 AD=1.4e-14 AS=1.2e-14 PD=4.8e-07 PS=4.4e-07 $X=56670 $Y=49225 $D=1
M66 30 23 526 GND NMOS_VTL L=5e-08 W=1e-07 AD=1.2e-14 AS=1.4e-14 PD=4.4e-07 PS=4.8e-07 $X=57050 $Y=49225 $D=1
M67 33 262 GND GND NMOS_VTL L=5e-08 W=1e-07 AD=1.2e-14 AS=1.2e-14 PD=4.4e-07 PS=4.4e-07 $X=57325 $Y=55295 $D=1
M68 267 GND GND GND NMOS_VTL L=5e-08 W=1e-07 AD=1.35e-14 AS=1.15e-14 PD=4.7e-07 PS=4.3e-07 $X=57350 $Y=57305 $D=1
M69 527 17 23 GND NMOS_VTL L=5e-08 W=1e-07 AD=1.5e-14 AS=1.2e-14 PD=5e-07 PS=4.4e-07 $X=57910 $Y=49225 $D=1
M70 32 267 31 GND NMOS_VTL L=5e-08 W=1e-07 AD=1.4e-14 AS=1.2e-14 PD=4.8e-07 PS=4.4e-07 $X=58120 $Y=57305 $D=1
M71 GND 30 527 GND NMOS_VTL L=5e-08 W=1e-07 AD=1.2e-14 AS=1.5e-14 PD=4.4e-07 PS=5e-07 $X=58310 $Y=49225 $D=1
M72 GND 263 31 GND NMOS_VTL L=5e-08 W=1e-07 AD=1.2e-14 AS=1.2e-14 PD=4.4e-07 PS=4.4e-07 $X=58330 $Y=58455 $D=1
M73 33 GND 32 GND NMOS_VTL L=5e-08 W=1e-07 AD=1.15e-14 AS=1.4e-14 PD=4.3e-07 PS=4.8e-07 $X=58500 $Y=57305 $D=1
M74 268 14 30 GND NMOS_VTL L=5e-08 W=1e-07 AD=1.2e-14 AS=1.2e-14 PD=4.4e-07 PS=4.4e-07 $X=59170 $Y=49225 $D=1
M75 GND 269 268 GND NMOS_VTL L=5e-08 W=1e-07 AD=1.2e-14 AS=1.2e-14 PD=4.4e-07 PS=4.4e-07 $X=60030 $Y=49225 $D=1
M76 GND 32 269 GND NMOS_VTL L=5e-08 W=1e-07 AD=1.2e-14 AS=1.2e-14 PD=4.4e-07 PS=4.4e-07 $X=60890 $Y=49225 $D=1
M77 GND 36 S1 GND NMOS_VTL L=5e-08 W=1e-07 AD=1.2e-14 AS=1.2e-14 PD=4.4e-07 PS=4.4e-07 $X=62115 $Y=49225 $D=1
M78 GND 272 VDD GND NMOS_VTL L=5e-08 W=1e-07 AD=1.2e-14 AS=1.2e-14 PD=4.4e-07 PS=4.4e-07 $X=62155 $Y=61790 $D=1
M79 GND 41 272 GND NMOS_VTL L=5e-08 W=1e-07 AD=1.2e-14 AS=1.2e-14 PD=4.4e-07 PS=4.4e-07 $X=62155 $Y=62975 $D=1
M80 GND 41 40 GND NMOS_VTL L=5e-08 W=1e-07 AD=1.2e-14 AS=1.2e-14 PD=4.4e-07 PS=4.4e-07 $X=62155 $Y=63835 $D=1
M81 528 40 41 GND NMOS_VTL L=5e-08 W=1e-07 AD=1.5e-14 AS=1.2e-14 PD=5e-07 PS=4.4e-07 $X=62155 $Y=64695 $D=1
M82 529 37 528 GND NMOS_VTL L=5e-08 W=1e-07 AD=1.4e-14 AS=1.5e-14 PD=4.8e-07 PS=5e-07 $X=62155 $Y=65095 $D=1
M83 GND 35 529 GND NMOS_VTL L=5e-08 W=1e-07 AD=1.2e-14 AS=1.4e-14 PD=4.4e-07 PS=4.8e-07 $X=62155 $Y=65475 $D=1
M84 GND RESET 37 GND NMOS_VTL L=5e-08 W=1e-07 AD=1.2e-14 AS=1.2e-14 PD=4.4e-07 PS=4.4e-07 $X=62155 $Y=66355 $D=1
M85 GND 35 34 GND NMOS_VTL L=5e-08 W=1e-07 AD=1.2e-14 AS=1.2e-14 PD=4.4e-07 PS=4.4e-07 $X=62155 $Y=67215 $D=1
M86 GND 18 35 GND NMOS_VTL L=5e-08 W=1e-07 AD=1.2e-14 AS=1.2e-14 PD=4.4e-07 PS=4.4e-07 $X=62155 $Y=68075 $D=1
M87 42 34 41 GND NMOS_VTL L=5e-08 W=1e-07 AD=1.2e-14 AS=1.2e-14 PD=4.4e-07 PS=4.4e-07 $X=62155 $Y=68935 $D=1
M88 530 34 GND GND NMOS_VTL L=5e-08 W=1e-07 AD=1.4e-14 AS=1.2e-14 PD=4.8e-07 PS=4.4e-07 $X=62155 $Y=69795 $D=1
M89 38 42 530 GND NMOS_VTL L=5e-08 W=1e-07 AD=1.2e-14 AS=1.4e-14 PD=4.4e-07 PS=4.8e-07 $X=62155 $Y=70175 $D=1
M90 531 37 42 GND NMOS_VTL L=5e-08 W=1e-07 AD=1.5e-14 AS=1.2e-14 PD=5e-07 PS=4.4e-07 $X=62155 $Y=71035 $D=1
M91 GND 38 531 GND NMOS_VTL L=5e-08 W=1e-07 AD=1.2e-14 AS=1.5e-14 PD=4.4e-07 PS=5e-07 $X=62155 $Y=71435 $D=1
M92 273 35 38 GND NMOS_VTL L=5e-08 W=1e-07 AD=1.2e-14 AS=1.2e-14 PD=4.4e-07 PS=4.4e-07 $X=62155 $Y=72295 $D=1
M93 GND 274 273 GND NMOS_VTL L=5e-08 W=1e-07 AD=1.2e-14 AS=1.2e-14 PD=4.4e-07 PS=4.4e-07 $X=62155 $Y=73155 $D=1
M94 GND A1 274 GND NMOS_VTL L=5e-08 W=1e-07 AD=1.2e-14 AS=1.2e-14 PD=4.4e-07 PS=4.4e-07 $X=62155 $Y=74015 $D=1
M95 GND VDD 276 GND NMOS_VTL L=5e-08 W=1.15e-07 AD=1.61e-14 AS=1.3225e-14 PD=5.1e-07 PS=4.6e-07 $X=62790 $Y=54715 $D=1
M96 GND VDD 278 GND NMOS_VTL L=5e-08 W=1.15e-07 AD=1.61e-14 AS=1.3225e-14 PD=5.1e-07 PS=4.6e-07 $X=62790 $Y=57795 $D=1
M97 GND 36 39 GND NMOS_VTL L=5e-08 W=1e-07 AD=1.2e-14 AS=1.2e-14 PD=4.4e-07 PS=4.4e-07 $X=62975 $Y=49225 $D=1
M98 276 275 GND GND NMOS_VTL L=5e-08 W=1.15e-07 AD=1.61e-14 AS=1.61e-14 PD=5.1e-07 PS=5.1e-07 $X=63170 $Y=54715 $D=1
M99 278 275 GND GND NMOS_VTL L=5e-08 W=1.15e-07 AD=1.61e-14 AS=1.61e-14 PD=5.1e-07 PS=5.1e-07 $X=63170 $Y=57795 $D=1
M100 48 19 276 GND NMOS_VTL L=5e-08 W=1.15e-07 AD=1.61e-14 AS=1.61e-14 PD=5.1e-07 PS=5.1e-07 $X=63550 $Y=54715 $D=1
M101 49 20 278 GND NMOS_VTL L=5e-08 W=1.15e-07 AD=1.61e-14 AS=1.61e-14 PD=5.1e-07 PS=5.1e-07 $X=63550 $Y=57795 $D=1
M102 532 39 36 GND NMOS_VTL L=5e-08 W=1e-07 AD=1.5e-14 AS=1.2e-14 PD=5e-07 PS=4.4e-07 $X=63835 $Y=49225 $D=1
M103 533 VDD 48 GND NMOS_VTL L=5e-08 W=1.15e-07 AD=1.61e-14 AS=1.61e-14 PD=5.1e-07 PS=5.1e-07 $X=63930 $Y=54715 $D=1
M104 534 VDD 49 GND NMOS_VTL L=5e-08 W=1.15e-07 AD=1.61e-14 AS=1.61e-14 PD=5.1e-07 PS=5.1e-07 $X=63930 $Y=57795 $D=1
M105 535 47 532 GND NMOS_VTL L=5e-08 W=1e-07 AD=1.4e-14 AS=1.5e-14 PD=4.8e-07 PS=5e-07 $X=64235 $Y=49225 $D=1
M106 GND 275 533 GND NMOS_VTL L=5e-08 W=1.15e-07 AD=1.3225e-14 AS=1.61e-14 PD=4.6e-07 PS=5.1e-07 $X=64310 $Y=54715 $D=1
M107 GND 275 534 GND NMOS_VTL L=5e-08 W=1.15e-07 AD=1.3225e-14 AS=1.61e-14 PD=4.6e-07 PS=5.1e-07 $X=64310 $Y=57795 $D=1
M108 GND 45 535 GND NMOS_VTL L=5e-08 W=1e-07 AD=1.2e-14 AS=1.4e-14 PD=4.4e-07 PS=4.8e-07 $X=64615 $Y=49225 $D=1
M109 280 VDD GND GND NMOS_VTL L=5e-08 W=1e-07 AD=1.4e-14 AS=1.15e-14 PD=4.8e-07 PS=4.3e-07 $X=65030 $Y=54745 $D=1
M110 282 VDD GND GND NMOS_VTL L=5e-08 W=1e-07 AD=1.4e-14 AS=1.15e-14 PD=4.8e-07 PS=4.3e-07 $X=65030 $Y=57825 $D=1
M111 GND 275 280 GND NMOS_VTL L=5e-08 W=1e-07 AD=1.4e-14 AS=1.4e-14 PD=4.8e-07 PS=4.8e-07 $X=65410 $Y=54745 $D=1
M112 GND 275 282 GND NMOS_VTL L=5e-08 W=1e-07 AD=1.4e-14 AS=1.4e-14 PD=4.8e-07 PS=4.8e-07 $X=65410 $Y=57825 $D=1
M113 GND RESET 47 GND NMOS_VTL L=5e-08 W=1e-07 AD=1.2e-14 AS=1.2e-14 PD=4.4e-07 PS=4.4e-07 $X=65495 $Y=49225 $D=1
M114 280 19 GND GND NMOS_VTL L=5e-08 W=1e-07 AD=1.15e-14 AS=1.4e-14 PD=4.3e-07 PS=4.8e-07 $X=65790 $Y=54745 $D=1
M115 282 20 GND GND NMOS_VTL L=5e-08 W=1e-07 AD=1.15e-14 AS=1.4e-14 PD=4.3e-07 PS=4.8e-07 $X=65790 $Y=57825 $D=1
M116 GND 45 46 GND NMOS_VTL L=5e-08 W=1e-07 AD=1.2e-14 AS=1.2e-14 PD=4.4e-07 PS=4.4e-07 $X=66355 $Y=49225 $D=1
M117 62 48 280 GND NMOS_VTL L=5e-08 W=9e-08 AD=1.08e-14 AS=1.125e-14 PD=4.2e-07 PS=4.3e-07 $X=66530 $Y=54745 $D=1
M118 60 49 282 GND NMOS_VTL L=5e-08 W=9e-08 AD=1.08e-14 AS=1.125e-14 PD=4.2e-07 PS=4.3e-07 $X=66530 $Y=57825 $D=1
M119 GND 18 45 GND NMOS_VTL L=5e-08 W=1e-07 AD=1.2e-14 AS=1.2e-14 PD=4.4e-07 PS=4.4e-07 $X=67215 $Y=49225 $D=1
M120 536 19 62 GND NMOS_VTL L=5e-08 W=1e-07 AD=1.4e-14 AS=1.15e-14 PD=4.8e-07 PS=4.3e-07 $X=67260 $Y=54745 $D=1
M121 537 20 60 GND NMOS_VTL L=5e-08 W=1e-07 AD=1.4e-14 AS=1.15e-14 PD=4.8e-07 PS=4.3e-07 $X=67260 $Y=57825 $D=1
M122 542 VDD 536 GND NMOS_VTL L=5e-08 W=1e-07 AD=1.4e-14 AS=1.4e-14 PD=4.8e-07 PS=4.8e-07 $X=67640 $Y=54745 $D=1
M123 543 VDD 537 GND NMOS_VTL L=5e-08 W=1e-07 AD=1.4e-14 AS=1.4e-14 PD=4.8e-07 PS=4.8e-07 $X=67640 $Y=57825 $D=1
M124 GND 284 275 GND NMOS_VTL L=5e-08 W=1e-07 AD=1.2e-14 AS=1.2e-14 PD=4.4e-07 PS=4.4e-07 $X=67675 $Y=61790 $D=1
M125 GND 55 284 GND NMOS_VTL L=5e-08 W=1e-07 AD=1.2e-14 AS=1.2e-14 PD=4.4e-07 PS=4.4e-07 $X=67675 $Y=62975 $D=1
M126 GND 55 54 GND NMOS_VTL L=5e-08 W=1e-07 AD=1.2e-14 AS=1.2e-14 PD=4.4e-07 PS=4.4e-07 $X=67675 $Y=63835 $D=1
M127 538 54 55 GND NMOS_VTL L=5e-08 W=1e-07 AD=1.5e-14 AS=1.2e-14 PD=5e-07 PS=4.4e-07 $X=67675 $Y=64695 $D=1
M128 539 52 538 GND NMOS_VTL L=5e-08 W=1e-07 AD=1.4e-14 AS=1.5e-14 PD=4.8e-07 PS=5e-07 $X=67675 $Y=65095 $D=1
M129 GND 51 539 GND NMOS_VTL L=5e-08 W=1e-07 AD=1.2e-14 AS=1.4e-14 PD=4.4e-07 PS=4.8e-07 $X=67675 $Y=65475 $D=1
M130 GND RESET 52 GND NMOS_VTL L=5e-08 W=1e-07 AD=1.2e-14 AS=1.2e-14 PD=4.4e-07 PS=4.4e-07 $X=67675 $Y=66355 $D=1
M131 GND 51 50 GND NMOS_VTL L=5e-08 W=1e-07 AD=1.2e-14 AS=1.2e-14 PD=4.4e-07 PS=4.4e-07 $X=67675 $Y=67215 $D=1
M132 GND 18 51 GND NMOS_VTL L=5e-08 W=1e-07 AD=1.2e-14 AS=1.2e-14 PD=4.4e-07 PS=4.4e-07 $X=67675 $Y=68075 $D=1
M133 56 50 55 GND NMOS_VTL L=5e-08 W=1e-07 AD=1.2e-14 AS=1.2e-14 PD=4.4e-07 PS=4.4e-07 $X=67675 $Y=68935 $D=1
M134 540 50 GND GND NMOS_VTL L=5e-08 W=1e-07 AD=1.4e-14 AS=1.2e-14 PD=4.8e-07 PS=4.4e-07 $X=67675 $Y=69795 $D=1
M135 53 56 540 GND NMOS_VTL L=5e-08 W=1e-07 AD=1.2e-14 AS=1.4e-14 PD=4.4e-07 PS=4.8e-07 $X=67675 $Y=70175 $D=1
M136 541 52 56 GND NMOS_VTL L=5e-08 W=1e-07 AD=1.5e-14 AS=1.2e-14 PD=5e-07 PS=4.4e-07 $X=67675 $Y=71035 $D=1
M137 GND 53 541 GND NMOS_VTL L=5e-08 W=1e-07 AD=1.2e-14 AS=1.5e-14 PD=4.4e-07 PS=5e-07 $X=67675 $Y=71435 $D=1
M138 285 51 53 GND NMOS_VTL L=5e-08 W=1e-07 AD=1.2e-14 AS=1.2e-14 PD=4.4e-07 PS=4.4e-07 $X=67675 $Y=72295 $D=1
M139 GND 286 285 GND NMOS_VTL L=5e-08 W=1e-07 AD=1.2e-14 AS=1.2e-14 PD=4.4e-07 PS=4.4e-07 $X=67675 $Y=73155 $D=1
M140 GND B1 286 GND NMOS_VTL L=5e-08 W=1e-07 AD=1.2e-14 AS=1.2e-14 PD=4.4e-07 PS=4.4e-07 $X=67675 $Y=74015 $D=1
M141 GND 275 542 GND NMOS_VTL L=5e-08 W=1e-07 AD=1.15e-14 AS=1.4e-14 PD=4.3e-07 PS=4.8e-07 $X=68020 $Y=54745 $D=1
M142 GND 275 543 GND NMOS_VTL L=5e-08 W=1e-07 AD=1.15e-14 AS=1.4e-14 PD=4.3e-07 PS=4.8e-07 $X=68020 $Y=57825 $D=1
M143 57 46 36 GND NMOS_VTL L=5e-08 W=1e-07 AD=1.2e-14 AS=1.2e-14 PD=4.4e-07 PS=4.4e-07 $X=68075 $Y=49225 $D=1
M144 544 46 GND GND NMOS_VTL L=5e-08 W=1e-07 AD=1.4e-14 AS=1.2e-14 PD=4.8e-07 PS=4.4e-07 $X=68935 $Y=49225 $D=1
M145 288 GND GND GND NMOS_VTL L=5e-08 W=1e-07 AD=1.35e-14 AS=1.15e-14 PD=4.7e-07 PS=4.3e-07 $X=69150 $Y=57465 $D=1
M146 59 57 544 GND NMOS_VTL L=5e-08 W=1e-07 AD=1.2e-14 AS=1.4e-14 PD=4.4e-07 PS=4.8e-07 $X=69315 $Y=49225 $D=1
M147 61 288 60 GND NMOS_VTL L=5e-08 W=1e-07 AD=1.4e-14 AS=1.2e-14 PD=4.8e-07 PS=4.4e-07 $X=69920 $Y=57465 $D=1
M148 545 47 57 GND NMOS_VTL L=5e-08 W=1e-07 AD=1.5e-14 AS=1.2e-14 PD=5e-07 PS=4.4e-07 $X=70175 $Y=49225 $D=1
M149 62 GND 61 GND NMOS_VTL L=5e-08 W=1e-07 AD=1.15e-14 AS=1.4e-14 PD=4.3e-07 PS=4.8e-07 $X=70300 $Y=57465 $D=1
M150 GND 59 545 GND NMOS_VTL L=5e-08 W=1e-07 AD=1.2e-14 AS=1.5e-14 PD=4.4e-07 PS=5e-07 $X=70575 $Y=49225 $D=1
M151 289 45 59 GND NMOS_VTL L=5e-08 W=1e-07 AD=1.2e-14 AS=1.2e-14 PD=4.4e-07 PS=4.4e-07 $X=71435 $Y=49225 $D=1
M152 GND 290 289 GND NMOS_VTL L=5e-08 W=1e-07 AD=1.2e-14 AS=1.2e-14 PD=4.4e-07 PS=4.4e-07 $X=72295 $Y=49225 $D=1
M153 GND 61 290 GND NMOS_VTL L=5e-08 W=1e-07 AD=1.2e-14 AS=1.2e-14 PD=4.4e-07 PS=4.4e-07 $X=73155 $Y=49225 $D=1
M154 GND 69 VDD GND NMOS_VTL L=5e-08 W=1e-07 AD=1.2e-14 AS=1.2e-14 PD=4.4e-07 PS=4.4e-07 $X=74050 $Y=62980 $D=1
M155 GND 69 68 GND NMOS_VTL L=5e-08 W=1e-07 AD=1.2e-14 AS=1.2e-14 PD=4.4e-07 PS=4.4e-07 $X=74050 $Y=63840 $D=1
M156 546 68 69 GND NMOS_VTL L=5e-08 W=1e-07 AD=1.5e-14 AS=1.2e-14 PD=5e-07 PS=4.4e-07 $X=74050 $Y=64700 $D=1
M157 547 65 546 GND NMOS_VTL L=5e-08 W=1e-07 AD=1.4e-14 AS=1.5e-14 PD=4.8e-07 PS=5e-07 $X=74050 $Y=65100 $D=1
M158 GND 64 547 GND NMOS_VTL L=5e-08 W=1e-07 AD=1.2e-14 AS=1.4e-14 PD=4.4e-07 PS=4.8e-07 $X=74050 $Y=65480 $D=1
M159 GND RESET 65 GND NMOS_VTL L=5e-08 W=1e-07 AD=1.2e-14 AS=1.2e-14 PD=4.4e-07 PS=4.4e-07 $X=74050 $Y=66360 $D=1
M160 GND 64 63 GND NMOS_VTL L=5e-08 W=1e-07 AD=1.2e-14 AS=1.2e-14 PD=4.4e-07 PS=4.4e-07 $X=74050 $Y=67220 $D=1
M161 GND 18 64 GND NMOS_VTL L=5e-08 W=1e-07 AD=1.2e-14 AS=1.2e-14 PD=4.4e-07 PS=4.4e-07 $X=74050 $Y=68080 $D=1
M162 70 63 69 GND NMOS_VTL L=5e-08 W=1e-07 AD=1.2e-14 AS=1.2e-14 PD=4.4e-07 PS=4.4e-07 $X=74050 $Y=68940 $D=1
M163 548 63 GND GND NMOS_VTL L=5e-08 W=1e-07 AD=1.4e-14 AS=1.2e-14 PD=4.8e-07 PS=4.4e-07 $X=74050 $Y=69800 $D=1
M164 66 70 548 GND NMOS_VTL L=5e-08 W=1e-07 AD=1.2e-14 AS=1.4e-14 PD=4.4e-07 PS=4.8e-07 $X=74050 $Y=70180 $D=1
M165 549 65 70 GND NMOS_VTL L=5e-08 W=1e-07 AD=1.5e-14 AS=1.2e-14 PD=5e-07 PS=4.4e-07 $X=74050 $Y=71040 $D=1
M166 GND 66 549 GND NMOS_VTL L=5e-08 W=1e-07 AD=1.2e-14 AS=1.5e-14 PD=4.4e-07 PS=5e-07 $X=74050 $Y=71440 $D=1
M167 293 64 66 GND NMOS_VTL L=5e-08 W=1e-07 AD=1.2e-14 AS=1.2e-14 PD=4.4e-07 PS=4.4e-07 $X=74050 $Y=72300 $D=1
M168 GND 294 293 GND NMOS_VTL L=5e-08 W=1e-07 AD=1.2e-14 AS=1.2e-14 PD=4.4e-07 PS=4.4e-07 $X=74050 $Y=73160 $D=1
M169 GND A2 294 GND NMOS_VTL L=5e-08 W=1e-07 AD=1.2e-14 AS=1.2e-14 PD=4.4e-07 PS=4.4e-07 $X=74050 $Y=74020 $D=1
M170 GND 67 S2 GND NMOS_VTL L=5e-08 W=1e-07 AD=1.2e-14 AS=1.2e-14 PD=4.4e-07 PS=4.4e-07 $X=74310 $Y=49225 $D=1
M171 GND VDD 296 GND NMOS_VTL L=5e-08 W=1.15e-07 AD=1.61e-14 AS=1.3225e-14 PD=5.1e-07 PS=4.6e-07 $X=74590 $Y=54715 $D=1
M172 GND VDD 298 GND NMOS_VTL L=5e-08 W=1.15e-07 AD=1.61e-14 AS=1.3225e-14 PD=5.1e-07 PS=4.6e-07 $X=74590 $Y=57795 $D=1
M173 296 295 GND GND NMOS_VTL L=5e-08 W=1.15e-07 AD=1.61e-14 AS=1.61e-14 PD=5.1e-07 PS=5.1e-07 $X=74970 $Y=54715 $D=1
M174 298 295 GND GND NMOS_VTL L=5e-08 W=1.15e-07 AD=1.61e-14 AS=1.61e-14 PD=5.1e-07 PS=5.1e-07 $X=74970 $Y=57795 $D=1
M175 GND 67 71 GND NMOS_VTL L=5e-08 W=1e-07 AD=1.2e-14 AS=1.2e-14 PD=4.4e-07 PS=4.4e-07 $X=75170 $Y=49225 $D=1
M176 77 48 296 GND NMOS_VTL L=5e-08 W=1.15e-07 AD=1.61e-14 AS=1.61e-14 PD=5.1e-07 PS=5.1e-07 $X=75350 $Y=54715 $D=1
M177 78 49 298 GND NMOS_VTL L=5e-08 W=1.15e-07 AD=1.61e-14 AS=1.61e-14 PD=5.1e-07 PS=5.1e-07 $X=75350 $Y=57795 $D=1
M178 550 VDD 77 GND NMOS_VTL L=5e-08 W=1.15e-07 AD=1.61e-14 AS=1.61e-14 PD=5.1e-07 PS=5.1e-07 $X=75730 $Y=54715 $D=1
M179 551 VDD 78 GND NMOS_VTL L=5e-08 W=1.15e-07 AD=1.61e-14 AS=1.61e-14 PD=5.1e-07 PS=5.1e-07 $X=75730 $Y=57795 $D=1
M180 552 71 67 GND NMOS_VTL L=5e-08 W=1e-07 AD=1.5e-14 AS=1.2e-14 PD=5e-07 PS=4.4e-07 $X=76030 $Y=49225 $D=1
M181 GND 295 550 GND NMOS_VTL L=5e-08 W=1.15e-07 AD=1.3225e-14 AS=1.61e-14 PD=4.6e-07 PS=5.1e-07 $X=76110 $Y=54715 $D=1
M182 GND 295 551 GND NMOS_VTL L=5e-08 W=1.15e-07 AD=1.3225e-14 AS=1.61e-14 PD=4.6e-07 PS=5.1e-07 $X=76110 $Y=57795 $D=1
M183 553 76 552 GND NMOS_VTL L=5e-08 W=1e-07 AD=1.4e-14 AS=1.5e-14 PD=4.8e-07 PS=5e-07 $X=76430 $Y=49225 $D=1
M184 GND 74 553 GND NMOS_VTL L=5e-08 W=1e-07 AD=1.2e-14 AS=1.4e-14 PD=4.4e-07 PS=4.8e-07 $X=76810 $Y=49225 $D=1
M185 301 VDD GND GND NMOS_VTL L=5e-08 W=1e-07 AD=1.4e-14 AS=1.15e-14 PD=4.8e-07 PS=4.3e-07 $X=76830 $Y=54745 $D=1
M186 303 VDD GND GND NMOS_VTL L=5e-08 W=1e-07 AD=1.4e-14 AS=1.15e-14 PD=4.8e-07 PS=4.3e-07 $X=76830 $Y=57825 $D=1
M187 GND 295 301 GND NMOS_VTL L=5e-08 W=1e-07 AD=1.4e-14 AS=1.4e-14 PD=4.8e-07 PS=4.8e-07 $X=77210 $Y=54745 $D=1
M188 GND 295 303 GND NMOS_VTL L=5e-08 W=1e-07 AD=1.4e-14 AS=1.4e-14 PD=4.8e-07 PS=4.8e-07 $X=77210 $Y=57825 $D=1
M189 301 48 GND GND NMOS_VTL L=5e-08 W=1e-07 AD=1.15e-14 AS=1.4e-14 PD=4.3e-07 PS=4.8e-07 $X=77590 $Y=54745 $D=1
M190 303 49 GND GND NMOS_VTL L=5e-08 W=1e-07 AD=1.15e-14 AS=1.4e-14 PD=4.3e-07 PS=4.8e-07 $X=77590 $Y=57825 $D=1
M191 GND RESET 76 GND NMOS_VTL L=5e-08 W=1e-07 AD=1.2e-14 AS=1.2e-14 PD=4.4e-07 PS=4.4e-07 $X=77690 $Y=49225 $D=1
M192 305 77 301 GND NMOS_VTL L=5e-08 W=9e-08 AD=1.08e-14 AS=1.125e-14 PD=4.2e-07 PS=4.3e-07 $X=78330 $Y=54745 $D=1
M193 306 78 303 GND NMOS_VTL L=5e-08 W=9e-08 AD=1.08e-14 AS=1.125e-14 PD=4.2e-07 PS=4.3e-07 $X=78330 $Y=57825 $D=1
M194 GND 74 75 GND NMOS_VTL L=5e-08 W=1e-07 AD=1.2e-14 AS=1.2e-14 PD=4.4e-07 PS=4.4e-07 $X=78550 $Y=49225 $D=1
M195 554 48 305 GND NMOS_VTL L=5e-08 W=1e-07 AD=1.4e-14 AS=1.15e-14 PD=4.8e-07 PS=4.3e-07 $X=79060 $Y=54745 $D=1
M196 555 49 306 GND NMOS_VTL L=5e-08 W=1e-07 AD=1.4e-14 AS=1.15e-14 PD=4.8e-07 PS=4.3e-07 $X=79060 $Y=57825 $D=1
M197 GND 18 74 GND NMOS_VTL L=5e-08 W=1e-07 AD=1.2e-14 AS=1.2e-14 PD=4.4e-07 PS=4.4e-07 $X=79410 $Y=49225 $D=1
M198 556 VDD 554 GND NMOS_VTL L=5e-08 W=1e-07 AD=1.4e-14 AS=1.4e-14 PD=4.8e-07 PS=4.8e-07 $X=79440 $Y=54745 $D=1
M199 557 VDD 555 GND NMOS_VTL L=5e-08 W=1e-07 AD=1.4e-14 AS=1.4e-14 PD=4.8e-07 PS=4.8e-07 $X=79440 $Y=57825 $D=1
M200 GND 84 295 GND NMOS_VTL L=5e-08 W=1e-07 AD=1.2e-14 AS=1.2e-14 PD=4.4e-07 PS=4.4e-07 $X=79550 $Y=62980 $D=1
M201 GND 84 83 GND NMOS_VTL L=5e-08 W=1e-07 AD=1.2e-14 AS=1.2e-14 PD=4.4e-07 PS=4.4e-07 $X=79550 $Y=63840 $D=1
M202 558 83 84 GND NMOS_VTL L=5e-08 W=1e-07 AD=1.5e-14 AS=1.2e-14 PD=5e-07 PS=4.4e-07 $X=79550 $Y=64700 $D=1
M203 559 81 558 GND NMOS_VTL L=5e-08 W=1e-07 AD=1.4e-14 AS=1.5e-14 PD=4.8e-07 PS=5e-07 $X=79550 $Y=65100 $D=1
M204 GND 80 559 GND NMOS_VTL L=5e-08 W=1e-07 AD=1.2e-14 AS=1.4e-14 PD=4.4e-07 PS=4.8e-07 $X=79550 $Y=65480 $D=1
M205 GND RESET 81 GND NMOS_VTL L=5e-08 W=1e-07 AD=1.2e-14 AS=1.2e-14 PD=4.4e-07 PS=4.4e-07 $X=79550 $Y=66360 $D=1
M206 GND 80 79 GND NMOS_VTL L=5e-08 W=1e-07 AD=1.2e-14 AS=1.2e-14 PD=4.4e-07 PS=4.4e-07 $X=79550 $Y=67220 $D=1
M207 GND 18 80 GND NMOS_VTL L=5e-08 W=1e-07 AD=1.2e-14 AS=1.2e-14 PD=4.4e-07 PS=4.4e-07 $X=79550 $Y=68080 $D=1
M208 85 79 84 GND NMOS_VTL L=5e-08 W=1e-07 AD=1.2e-14 AS=1.2e-14 PD=4.4e-07 PS=4.4e-07 $X=79550 $Y=68940 $D=1
M209 560 79 GND GND NMOS_VTL L=5e-08 W=1e-07 AD=1.4e-14 AS=1.2e-14 PD=4.8e-07 PS=4.4e-07 $X=79550 $Y=69800 $D=1
M210 82 85 560 GND NMOS_VTL L=5e-08 W=1e-07 AD=1.2e-14 AS=1.4e-14 PD=4.4e-07 PS=4.8e-07 $X=79550 $Y=70180 $D=1
M211 561 81 85 GND NMOS_VTL L=5e-08 W=1e-07 AD=1.5e-14 AS=1.2e-14 PD=5e-07 PS=4.4e-07 $X=79550 $Y=71040 $D=1
M212 GND 82 561 GND NMOS_VTL L=5e-08 W=1e-07 AD=1.2e-14 AS=1.5e-14 PD=4.4e-07 PS=5e-07 $X=79550 $Y=71440 $D=1
M213 307 80 82 GND NMOS_VTL L=5e-08 W=1e-07 AD=1.2e-14 AS=1.2e-14 PD=4.4e-07 PS=4.4e-07 $X=79550 $Y=72300 $D=1
M214 GND 308 307 GND NMOS_VTL L=5e-08 W=1e-07 AD=1.2e-14 AS=1.2e-14 PD=4.4e-07 PS=4.4e-07 $X=79550 $Y=73160 $D=1
M215 GND B2 308 GND NMOS_VTL L=5e-08 W=1e-07 AD=1.2e-14 AS=1.2e-14 PD=4.4e-07 PS=4.4e-07 $X=79550 $Y=74020 $D=1
M216 GND 295 556 GND NMOS_VTL L=5e-08 W=1e-07 AD=1.15e-14 AS=1.4e-14 PD=4.3e-07 PS=4.8e-07 $X=79820 $Y=54745 $D=1
M217 GND 295 557 GND NMOS_VTL L=5e-08 W=1e-07 AD=1.15e-14 AS=1.4e-14 PD=4.3e-07 PS=4.8e-07 $X=79820 $Y=57825 $D=1
M218 86 75 67 GND NMOS_VTL L=5e-08 W=1e-07 AD=1.2e-14 AS=1.2e-14 PD=4.4e-07 PS=4.4e-07 $X=80270 $Y=49225 $D=1
M219 91 305 GND GND NMOS_VTL L=5e-08 W=1e-07 AD=1.2e-14 AS=1.2e-14 PD=4.4e-07 PS=4.4e-07 $X=80925 $Y=55295 $D=1
M220 310 GND GND GND NMOS_VTL L=5e-08 W=1e-07 AD=1.35e-14 AS=1.15e-14 PD=4.7e-07 PS=4.3e-07 $X=80950 $Y=57465 $D=1
M221 562 75 GND GND NMOS_VTL L=5e-08 W=1e-07 AD=1.4e-14 AS=1.2e-14 PD=4.8e-07 PS=4.4e-07 $X=81130 $Y=49225 $D=1
M222 89 86 562 GND NMOS_VTL L=5e-08 W=1e-07 AD=1.2e-14 AS=1.4e-14 PD=4.4e-07 PS=4.8e-07 $X=81510 $Y=49225 $D=1
M223 90 310 88 GND NMOS_VTL L=5e-08 W=1e-07 AD=1.4e-14 AS=1.2e-14 PD=4.8e-07 PS=4.4e-07 $X=81720 $Y=57465 $D=1
M224 GND 306 88 GND NMOS_VTL L=5e-08 W=1e-07 AD=1.2e-14 AS=1.2e-14 PD=4.4e-07 PS=4.4e-07 $X=81930 $Y=58615 $D=1
M225 91 GND 90 GND NMOS_VTL L=5e-08 W=1e-07 AD=1.15e-14 AS=1.4e-14 PD=4.3e-07 PS=4.8e-07 $X=82100 $Y=57465 $D=1
M226 563 76 86 GND NMOS_VTL L=5e-08 W=1e-07 AD=1.5e-14 AS=1.2e-14 PD=5e-07 PS=4.4e-07 $X=82370 $Y=49225 $D=1
M227 GND 89 563 GND NMOS_VTL L=5e-08 W=1e-07 AD=1.2e-14 AS=1.5e-14 PD=4.4e-07 PS=5e-07 $X=82770 $Y=49225 $D=1
M228 311 74 89 GND NMOS_VTL L=5e-08 W=1e-07 AD=1.2e-14 AS=1.2e-14 PD=4.4e-07 PS=4.4e-07 $X=83630 $Y=49225 $D=1
M229 GND 312 311 GND NMOS_VTL L=5e-08 W=1e-07 AD=1.2e-14 AS=1.2e-14 PD=4.4e-07 PS=4.4e-07 $X=84490 $Y=49225 $D=1
M230 GND 90 312 GND NMOS_VTL L=5e-08 W=1e-07 AD=1.2e-14 AS=1.2e-14 PD=4.4e-07 PS=4.4e-07 $X=85350 $Y=49225 $D=1
M231 GND 315 313 GND NMOS_VTL L=5e-08 W=1e-07 AD=1.2e-14 AS=1.2e-14 PD=4.4e-07 PS=4.4e-07 $X=85755 $Y=61795 $D=1
M232 GND 97 315 GND NMOS_VTL L=5e-08 W=1e-07 AD=1.2e-14 AS=1.2e-14 PD=4.4e-07 PS=4.4e-07 $X=85755 $Y=62980 $D=1
M233 GND 97 96 GND NMOS_VTL L=5e-08 W=1e-07 AD=1.2e-14 AS=1.2e-14 PD=4.4e-07 PS=4.4e-07 $X=85755 $Y=63840 $D=1
M234 564 96 97 GND NMOS_VTL L=5e-08 W=1e-07 AD=1.5e-14 AS=1.2e-14 PD=5e-07 PS=4.4e-07 $X=85755 $Y=64700 $D=1
M235 565 94 564 GND NMOS_VTL L=5e-08 W=1e-07 AD=1.4e-14 AS=1.5e-14 PD=4.8e-07 PS=5e-07 $X=85755 $Y=65100 $D=1
M236 GND 93 565 GND NMOS_VTL L=5e-08 W=1e-07 AD=1.2e-14 AS=1.4e-14 PD=4.4e-07 PS=4.8e-07 $X=85755 $Y=65480 $D=1
M237 GND RESET 94 GND NMOS_VTL L=5e-08 W=1e-07 AD=1.2e-14 AS=1.2e-14 PD=4.4e-07 PS=4.4e-07 $X=85755 $Y=66360 $D=1
M238 GND 93 92 GND NMOS_VTL L=5e-08 W=1e-07 AD=1.2e-14 AS=1.2e-14 PD=4.4e-07 PS=4.4e-07 $X=85755 $Y=67220 $D=1
M239 GND 18 93 GND NMOS_VTL L=5e-08 W=1e-07 AD=1.2e-14 AS=1.2e-14 PD=4.4e-07 PS=4.4e-07 $X=85755 $Y=68080 $D=1
M240 98 92 97 GND NMOS_VTL L=5e-08 W=1e-07 AD=1.2e-14 AS=1.2e-14 PD=4.4e-07 PS=4.4e-07 $X=85755 $Y=68940 $D=1
M241 566 92 GND GND NMOS_VTL L=5e-08 W=1e-07 AD=1.4e-14 AS=1.2e-14 PD=4.8e-07 PS=4.4e-07 $X=85755 $Y=69800 $D=1
M242 95 98 566 GND NMOS_VTL L=5e-08 W=1e-07 AD=1.2e-14 AS=1.4e-14 PD=4.4e-07 PS=4.8e-07 $X=85755 $Y=70180 $D=1
M243 567 94 98 GND NMOS_VTL L=5e-08 W=1e-07 AD=1.5e-14 AS=1.2e-14 PD=5e-07 PS=4.4e-07 $X=85755 $Y=71040 $D=1
M244 GND 95 567 GND NMOS_VTL L=5e-08 W=1e-07 AD=1.2e-14 AS=1.5e-14 PD=4.4e-07 PS=5e-07 $X=85755 $Y=71440 $D=1
M245 316 93 95 GND NMOS_VTL L=5e-08 W=1e-07 AD=1.2e-14 AS=1.2e-14 PD=4.4e-07 PS=4.4e-07 $X=85755 $Y=72300 $D=1
M246 GND 317 316 GND NMOS_VTL L=5e-08 W=1e-07 AD=1.2e-14 AS=1.2e-14 PD=4.4e-07 PS=4.4e-07 $X=85755 $Y=73160 $D=1
M247 GND A3 317 GND NMOS_VTL L=5e-08 W=1e-07 AD=1.2e-14 AS=1.2e-14 PD=4.4e-07 PS=4.4e-07 $X=85755 $Y=74020 $D=1
M248 GND 313 319 GND NMOS_VTL L=5e-08 W=1.15e-07 AD=1.61e-14 AS=1.3225e-14 PD=5.1e-07 PS=4.6e-07 $X=86390 $Y=54555 $D=1
M249 GND 313 321 GND NMOS_VTL L=5e-08 W=1.15e-07 AD=1.61e-14 AS=1.3225e-14 PD=5.1e-07 PS=4.6e-07 $X=86390 $Y=57635 $D=1
M250 GND 99 S3 GND NMOS_VTL L=5e-08 W=1e-07 AD=1.2e-14 AS=1.2e-14 PD=4.4e-07 PS=4.4e-07 $X=86575 $Y=49225 $D=1
M251 319 318 GND GND NMOS_VTL L=5e-08 W=1.15e-07 AD=1.61e-14 AS=1.61e-14 PD=5.1e-07 PS=5.1e-07 $X=86770 $Y=54555 $D=1
M252 321 318 GND GND NMOS_VTL L=5e-08 W=1.15e-07 AD=1.61e-14 AS=1.61e-14 PD=5.1e-07 PS=5.1e-07 $X=86770 $Y=57635 $D=1
M253 106 77 319 GND NMOS_VTL L=5e-08 W=1.15e-07 AD=1.61e-14 AS=1.61e-14 PD=5.1e-07 PS=5.1e-07 $X=87150 $Y=54555 $D=1
M254 107 78 321 GND NMOS_VTL L=5e-08 W=1.15e-07 AD=1.61e-14 AS=1.61e-14 PD=5.1e-07 PS=5.1e-07 $X=87150 $Y=57635 $D=1
M255 GND 99 101 GND NMOS_VTL L=5e-08 W=1e-07 AD=1.2e-14 AS=1.2e-14 PD=4.4e-07 PS=4.4e-07 $X=87435 $Y=49225 $D=1
M256 568 313 106 GND NMOS_VTL L=5e-08 W=1.15e-07 AD=1.61e-14 AS=1.61e-14 PD=5.1e-07 PS=5.1e-07 $X=87530 $Y=54555 $D=1
M257 569 313 107 GND NMOS_VTL L=5e-08 W=1.15e-07 AD=1.61e-14 AS=1.61e-14 PD=5.1e-07 PS=5.1e-07 $X=87530 $Y=57635 $D=1
M258 GND 318 568 GND NMOS_VTL L=5e-08 W=1.15e-07 AD=1.3225e-14 AS=1.61e-14 PD=4.6e-07 PS=5.1e-07 $X=87910 $Y=54555 $D=1
M259 GND 318 569 GND NMOS_VTL L=5e-08 W=1.15e-07 AD=1.3225e-14 AS=1.61e-14 PD=4.6e-07 PS=5.1e-07 $X=87910 $Y=57635 $D=1
M260 570 101 99 GND NMOS_VTL L=5e-08 W=1e-07 AD=1.5e-14 AS=1.2e-14 PD=5e-07 PS=4.4e-07 $X=88295 $Y=49225 $D=1
M261 324 313 GND GND NMOS_VTL L=5e-08 W=1e-07 AD=1.4e-14 AS=1.15e-14 PD=4.8e-07 PS=4.3e-07 $X=88630 $Y=54585 $D=1
M262 326 313 GND GND NMOS_VTL L=5e-08 W=1e-07 AD=1.4e-14 AS=1.15e-14 PD=4.8e-07 PS=4.3e-07 $X=88630 $Y=57665 $D=1
M263 571 105 570 GND NMOS_VTL L=5e-08 W=1e-07 AD=1.4e-14 AS=1.5e-14 PD=4.8e-07 PS=5e-07 $X=88695 $Y=49225 $D=1
M264 GND 318 324 GND NMOS_VTL L=5e-08 W=1e-07 AD=1.4e-14 AS=1.4e-14 PD=4.8e-07 PS=4.8e-07 $X=89010 $Y=54585 $D=1