* File: Eight_Bit_CSL_Adder.pex.netlist
* Created: Sun Dec 17 18:13:17 2023
* Program "Calibre xRC"
* Version "v2014.4_28.20"
* 
.include "Eight_Bit_CSL_Adder.pex.netlist.pex"
.subckt Eight_Bit_CSL_Adder  VDD GND RESET CLK_MAIN S0 A0 B0 S1 A1 B1 S2 A2 B2
+ S3 A3 B3 S4 A4 B4 S5 A5 B5 S6 A6 B6 S7 A7 B7 COUT
* 
* COUT	COUT
* B7	B7
* A7	A7
* S7	S7
* B6	B6
* A6	A6
* S6	S6
* B5	B5
* A5	A5
* S5	S5
* B4	B4
* A4	A4
* S4	S4
* B3	B3
* A3	A3
* S3	S3
* B2	B2
* A2	A2
* S2	S2
* B1	B1
* A1	A1
* S1	S1
* B0	B0
* A0	A0
* S0	S0
* CLK_MAIN	CLK_MAIN
* RESET	RESET
* GND	GND
* VDD	VDD
mXI66/Xq_inv/MM1 N_S0_XI66/Xq_inv/MM1_d N_XI66/NET5_XI66/Xq_inv/MM1_g
+ N_GND_XI66/Xq_inv/MM1_s N_GND_XI66/Xq_inv/MM1_b NMOS_VTL L=5e-08 W=1e-07
+ AD=1.2e-14 AS=1.2e-14 PD=4.4e-07 PS=4.4e-07
mXI50/Xq_inv/MM1 N_NET1_XI50/Xq_inv/MM1_d N_XI50/NET5_XI50/Xq_inv/MM1_g
+ N_GND_XI50/Xq_inv/MM1_s N_GND_XI50/Xq_inv/MM1_b NMOS_VTL L=5e-08 W=1e-07
+ AD=1.2e-14 AS=1.2e-14 PD=4.4e-07 PS=4.4e-07
mXI50/Xinv_loopback/MM1 N_XI50/NET10_XI50/Xinv_loopback/MM1_d
+ N_XI50/NET5_XI50/Xinv_loopback/MM1_g N_GND_XI50/Xinv_loopback/MM1_s
+ N_GND_XI50/Xq_inv/MM1_b NMOS_VTL L=5e-08 W=1e-07 AD=1.2e-14 AS=1.2e-14
+ PD=4.4e-07 PS=4.4e-07
mXI50/Xt_n/Mt_nand_nmos_1 N_XI50/NET5_XI50/Xt_n/Mt_nand_nmos_1_d
+ N_XI50/NET10_XI50/Xt_n/Mt_nand_nmos_1_g XI50/XT_N/NET1 N_GND_XI50/Xq_inv/MM1_b
+ NMOS_VTL L=5e-08 W=1e-07 AD=1.2e-14 AS=1.5e-14 PD=4.4e-07 PS=5e-07
mXI50/Xt_n/Mt_nand_nmos_2 XI50/XT_N/NET1
+ N_XI50/:RESET_XI50/Xt_n/Mt_nand_nmos_2_g XI50/XT_N/NET2
+ N_GND_XI50/Xq_inv/MM1_b NMOS_VTL L=5e-08 W=1e-07 AD=1.5e-14 AS=1.4e-14
+ PD=5e-07 PS=4.8e-07
mXI50/Xt_n/Mt_nand_nmos_state_ctrl XI50/XT_N/NET2
+ N_XI50/:CLK_XI50/Xt_n/Mt_nand_nmos_state_ctrl_g
+ N_GND_XI50/Xt_n/Mt_nand_nmos_state_ctrl_s N_GND_XI50/Xq_inv/MM1_b NMOS_VTL
+ L=5e-08 W=1e-07 AD=1.4e-14 AS=1.2e-14 PD=4.8e-07 PS=4.4e-07
mXI50/X:reset/MM1 N_XI50/:RESET_XI50/X:reset/MM1_d N_RESET_XI50/X:reset/MM1_g
+ N_GND_XI50/X:reset/MM1_s N_GND_XI50/Xq_inv/MM1_b NMOS_VTL L=5e-08 W=1e-07
+ AD=1.2e-14 AS=1.2e-14 PD=4.4e-07 PS=4.4e-07
mXI50/X:clk_inv/MM1 N_XI50/CLK_XI50/X:clk_inv/MM1_d
+ N_XI50/:CLK_XI50/X:clk_inv/MM1_g N_GND_XI50/X:clk_inv/MM1_s
+ N_GND_XI50/Xq_inv/MM1_b NMOS_VTL L=5e-08 W=1e-07 AD=1.2e-14 AS=1.2e-14
+ PD=4.4e-07 PS=4.4e-07
mXI50/Xclk_inv/MM1 N_XI50/:CLK_XI50/Xclk_inv/MM1_d
+ N_CLK_MAIN_XI50/Xclk_inv/MM1_g N_GND_XI50/Xclk_inv/MM1_s
+ N_GND_XI50/Xq_inv/MM1_b NMOS_VTL L=5e-08 W=1e-07 AD=1.2e-14 AS=1.2e-14
+ PD=4.4e-07 PS=4.4e-07
mXI50/Xtg2/MM0 N_XI50/NET5_XI50/Xtg2/MM0_d N_XI50/CLK_XI50/Xtg2/MM0_g
+ N_XI50/NET6_XI50/Xtg2/MM0_s N_GND_XI50/Xq_inv/MM1_b NMOS_VTL L=5e-08 W=1e-07
+ AD=1.2e-14 AS=1.2e-14 PD=4.4e-07 PS=4.4e-07
mXI50/Xt_i1/Mt_i_nmos_state_ctrl XI50/XT_I1/NET2
+ N_XI50/CLK_XI50/Xt_i1/Mt_i_nmos_state_ctrl_g
+ N_GND_XI50/Xt_i1/Mt_i_nmos_state_ctrl_s N_GND_XI50/Xq_inv/MM1_b NMOS_VTL
+ L=5e-08 W=1e-07 AD=1.4e-14 AS=1.2e-14 PD=4.8e-07 PS=4.4e-07
mXI50/Xt_i1/Mt_i_nmos N_XI50/NET1_XI50/Xt_i1/Mt_i_nmos_d
+ N_XI50/NET6_XI50/Xt_i1/Mt_i_nmos_g XI50/XT_I1/NET2 N_GND_XI50/Xq_inv/MM1_b
+ NMOS_VTL L=5e-08 W=1e-07 AD=1.2e-14 AS=1.4e-14 PD=4.4e-07 PS=4.8e-07
mXI50/Xnand/Mnand_nmos_1 N_XI50/NET6_XI50/Xnand/Mnand_nmos_1_d
+ N_XI50/:RESET_XI50/Xnand/Mnand_nmos_1_g XI50/XNAND/NET1
+ N_GND_XI50/Xq_inv/MM1_b NMOS_VTL L=5e-08 W=1e-07 AD=1.2e-14 AS=1.5e-14
+ PD=4.4e-07 PS=5e-07
mXI50/Xnand/Mnand_nmos_2 XI50/XNAND/NET1 N_XI50/NET1_XI50/Xnand/Mnand_nmos_2_g
+ N_GND_XI50/Xnand/Mnand_nmos_2_s N_GND_XI50/Xq_inv/MM1_b NMOS_VTL L=5e-08
+ W=1e-07 AD=1.5e-14 AS=1.2e-14 PD=5e-07 PS=4.4e-07
mXI50/Xtg1/MM0 N_XI50/NET1_XI50/Xtg1/MM0_d N_XI50/:CLK_XI50/Xtg1/MM0_g
+ N_XI50/NET2_XI50/Xtg1/MM0_s N_GND_XI50/Xq_inv/MM1_b NMOS_VTL L=5e-08 W=1e-07
+ AD=1.2e-14 AS=1.2e-14 PD=4.4e-07 PS=4.4e-07
mXI50/X:d_inv/MM1 N_XI50/NET2_XI50/X:d_inv/MM1_d N_XI50/NET8_XI50/X:d_inv/MM1_g
+ N_GND_XI50/X:d_inv/MM1_s N_GND_XI50/Xq_inv/MM1_b NMOS_VTL L=5e-08 W=1e-07
+ AD=1.2e-14 AS=1.2e-14 PD=4.4e-07 PS=4.4e-07
mXI50/Xd_inv/MM1 N_XI50/NET8_XI50/Xd_inv/MM1_d N_A0_XI50/Xd_inv/MM1_g
+ N_GND_XI50/Xd_inv/MM1_s N_GND_XI50/Xq_inv/MM1_b NMOS_VTL L=5e-08 W=1e-07
+ AD=1.2e-14 AS=1.2e-14 PD=4.4e-07 PS=4.4e-07
mXI66/Xinv_loopback/MM1 N_XI66/NET10_XI66/Xinv_loopback/MM1_d
+ N_XI66/NET5_XI66/Xinv_loopback/MM1_g N_GND_XI66/Xinv_loopback/MM1_s
+ N_GND_XI66/Xq_inv/MM1_b NMOS_VTL L=5e-08 W=1e-07 AD=1.2e-14 AS=1.2e-14
+ PD=4.4e-07 PS=4.4e-07
mXI15/MM9 N_XI15/NET8_XI15/MM9_d N_NET1_XI15/MM9_g N_GND_XI15/MM9_s
+ N_GND_XI15/MM9_b NMOS_VTL L=5e-08 W=1.15e-07 AD=1.3225e-14 AS=1.61e-14
+ PD=4.6e-07 PS=5.1e-07
mXI0/MM9 N_XI0/NET8_XI0/MM9_d N_NET1_XI0/MM9_g N_GND_XI0/MM9_s N_GND_XI0/MM9_b
+ NMOS_VTL L=5e-08 W=1.15e-07 AD=1.3225e-14 AS=1.61e-14 PD=4.6e-07 PS=5.1e-07
mXI15/MM8 N_XI15/NET8_XI15/MM8_d N_NET2_XI15/MM8_g N_GND_XI15/MM9_s
+ N_GND_XI15/MM9_b NMOS_VTL L=5e-08 W=1.15e-07 AD=1.61e-14 AS=1.61e-14
+ PD=5.1e-07 PS=5.1e-07
mXI0/MM8 N_XI0/NET8_XI0/MM8_d N_NET2_XI0/MM8_g N_GND_XI0/MM9_s N_GND_XI0/MM9_b
+ NMOS_VTL L=5e-08 W=1.15e-07 AD=1.61e-14 AS=1.61e-14 PD=5.1e-07 PS=5.1e-07
mXI66/Xt_n/Mt_nand_nmos_1 N_XI66/NET5_XI66/Xt_n/Mt_nand_nmos_1_d
+ N_XI66/NET10_XI66/Xt_n/Mt_nand_nmos_1_g XI66/XT_N/NET1 N_GND_XI66/Xq_inv/MM1_b
+ NMOS_VTL L=5e-08 W=1e-07 AD=1.2e-14 AS=1.5e-14 PD=4.4e-07 PS=5e-07
mXI15/MM5 N_NET37_XI15/MM5_d N_VDD_XI15/MM5_g N_XI15/NET8_XI15/MM8_d
+ N_GND_XI15/MM9_b NMOS_VTL L=5e-08 W=1.15e-07 AD=1.61e-14 AS=1.61e-14
+ PD=5.1e-07 PS=5.1e-07
mXI0/MM5 N_NET16_XI0/MM5_d N_GND_XI0/MM5_g N_XI0/NET8_XI0/MM8_d N_GND_XI0/MM9_b
+ NMOS_VTL L=5e-08 W=1.15e-07 AD=1.61e-14 AS=1.61e-14 PD=5.1e-07 PS=5.1e-07
mXI66/Xt_n/Mt_nand_nmos_2 XI66/XT_N/NET1
+ N_XI66/:RESET_XI66/Xt_n/Mt_nand_nmos_2_g XI66/XT_N/NET2
+ N_GND_XI66/Xq_inv/MM1_b NMOS_VTL L=5e-08 W=1e-07 AD=1.5e-14 AS=1.4e-14
+ PD=5e-07 PS=4.8e-07
mXI15/MM6 N_NET37_XI15/MM5_d N_NET1_XI15/MM6_g XI15/NET9 N_GND_XI15/MM9_b
+ NMOS_VTL L=5e-08 W=1.15e-07 AD=1.61e-14 AS=1.61e-14 PD=5.1e-07 PS=5.1e-07
mXI0/MM6 N_NET16_XI0/MM5_d N_NET1_XI0/MM6_g XI0/NET9 N_GND_XI0/MM9_b NMOS_VTL
+ L=5e-08 W=1.15e-07 AD=1.61e-14 AS=1.61e-14 PD=5.1e-07 PS=5.1e-07
mXI66/Xt_n/Mt_nand_nmos_state_ctrl XI66/XT_N/NET2
+ N_XI66/:CLK_XI66/Xt_n/Mt_nand_nmos_state_ctrl_g
+ N_GND_XI66/Xt_n/Mt_nand_nmos_state_ctrl_s N_GND_XI66/Xq_inv/MM1_b NMOS_VTL
+ L=5e-08 W=1e-07 AD=1.4e-14 AS=1.2e-14 PD=4.8e-07 PS=4.4e-07
mXI15/MM7 XI15/NET9 N_NET2_XI15/MM7_g N_GND_XI15/MM7_s N_GND_XI15/MM9_b NMOS_VTL
+ L=5e-08 W=1.15e-07 AD=1.61e-14 AS=1.3225e-14 PD=5.1e-07 PS=4.6e-07
mXI0/MM7 XI0/NET9 N_NET2_XI0/MM7_g N_GND_XI0/MM7_s N_GND_XI0/MM9_b NMOS_VTL
+ L=5e-08 W=1.15e-07 AD=1.61e-14 AS=1.3225e-14 PD=5.1e-07 PS=4.6e-07
mXI66/X:reset/MM1 N_XI66/:RESET_XI66/X:reset/MM1_d N_RESET_XI66/X:reset/MM1_g
+ N_GND_XI66/X:reset/MM1_s N_GND_XI66/Xq_inv/MM1_b NMOS_VTL L=5e-08 W=1e-07
+ AD=1.2e-14 AS=1.2e-14 PD=4.4e-07 PS=4.4e-07
mXI15/MM19 N_XI15/NET22_XI15/MM19_d N_NET1_XI15/MM19_g N_GND_XI15/MM19_s
+ N_GND_XI15/MM9_b NMOS_VTL L=5e-08 W=1e-07 AD=1.4e-14 AS=1.15e-14 PD=4.8e-07
+ PS=4.3e-07
mXI0/MM19 N_XI0/NET22_XI0/MM19_d N_NET1_XI0/MM19_g N_GND_XI0/MM19_s
+ N_GND_XI0/MM9_b NMOS_VTL L=5e-08 W=1e-07 AD=1.4e-14 AS=1.15e-14 PD=4.8e-07
+ PS=4.3e-07
mXI15/MM21 N_XI15/NET22_XI15/MM19_d N_NET2_XI15/MM21_g N_GND_XI15/MM21_s
+ N_GND_XI15/MM9_b NMOS_VTL L=5e-08 W=1e-07 AD=1.4e-14 AS=1.4e-14 PD=4.8e-07
+ PS=4.8e-07
mXI0/MM21 N_XI0/NET22_XI0/MM19_d N_NET2_XI0/MM21_g N_GND_XI0/MM21_s
+ N_GND_XI0/MM9_b NMOS_VTL L=5e-08 W=1e-07 AD=1.4e-14 AS=1.4e-14 PD=4.8e-07
+ PS=4.8e-07
mXI15/MM18 N_XI15/NET22_XI15/MM18_d N_VDD_XI15/MM18_g N_GND_XI15/MM21_s
+ N_GND_XI15/MM9_b NMOS_VTL L=5e-08 W=1e-07 AD=1.15e-14 AS=1.4e-14 PD=4.3e-07
+ PS=4.8e-07
mXI0/MM18 N_XI0/NET22_XI0/MM18_d N_GND_XI0/MM18_g N_GND_XI0/MM21_s
+ N_GND_XI0/MM9_b NMOS_VTL L=5e-08 W=1e-07 AD=1.15e-14 AS=1.4e-14 PD=4.3e-07
+ PS=4.8e-07
mXI66/X:clk_inv/MM1 N_XI66/CLK_XI66/X:clk_inv/MM1_d
+ N_XI66/:CLK_XI66/X:clk_inv/MM1_g N_GND_XI66/X:clk_inv/MM1_s
+ N_GND_XI66/Xq_inv/MM1_b NMOS_VTL L=5e-08 W=1e-07 AD=1.2e-14 AS=1.2e-14
+ PD=4.4e-07 PS=4.4e-07
mXI15/MM15 N_NET14_XI15/MM15_d N_NET37_XI15/MM15_g N_XI15/NET22_XI15/MM15_s
+ N_GND_XI15/MM9_b NMOS_VTL L=5e-08 W=9e-08 AD=1.08e-14 AS=1.125e-14 PD=4.2e-07
+ PS=4.3e-07
mXI0/MM15 N_NET71_XI0/MM15_d N_NET16_XI0/MM15_g N_XI0/NET22_XI0/MM15_s
+ N_GND_XI0/MM9_b NMOS_VTL L=5e-08 W=9e-08 AD=1.08e-14 AS=1.125e-14 PD=4.2e-07
+ PS=4.3e-07
mXI66/Xclk_inv/MM1 N_XI66/:CLK_XI66/Xclk_inv/MM1_d
+ N_CLK_MAIN_XI66/Xclk_inv/MM1_g N_GND_XI66/Xclk_inv/MM1_s
+ N_GND_XI66/Xq_inv/MM1_b NMOS_VTL L=5e-08 W=1e-07 AD=1.2e-14 AS=1.2e-14
+ PD=4.4e-07 PS=4.4e-07
mXI15/MM16 N_NET14_XI15/MM16_d N_VDD_XI15/MM16_g XI15/NET23 N_GND_XI15/MM9_b
+ NMOS_VTL L=5e-08 W=1e-07 AD=1.15e-14 AS=1.4e-14 PD=4.3e-07 PS=4.8e-07
mXI0/MM16 N_NET71_XI0/MM16_d N_GND_XI0/MM16_g XI0/NET23 N_GND_XI0/MM9_b NMOS_VTL
+ L=5e-08 W=1e-07 AD=1.15e-14 AS=1.4e-14 PD=4.3e-07 PS=4.8e-07
mXI66/Xtg2/MM0 N_XI66/NET5_XI66/Xtg2/MM0_d N_XI66/CLK_XI66/Xtg2/MM0_g
+ N_XI66/NET6_XI66/Xtg2/MM0_s N_GND_XI66/Xq_inv/MM1_b NMOS_VTL L=5e-08 W=1e-07
+ AD=1.2e-14 AS=1.2e-14 PD=4.4e-07 PS=4.4e-07
mXI15/MM17 XI15/NET23 N_NET1_XI15/MM17_g XI15/NET24 N_GND_XI15/MM9_b NMOS_VTL
+ L=5e-08 W=1e-07 AD=1.4e-14 AS=1.4e-14 PD=4.8e-07 PS=4.8e-07
mXI0/MM17 XI0/NET23 N_NET1_XI0/MM17_g XI0/NET24 N_GND_XI0/MM9_b NMOS_VTL L=5e-08
+ W=1e-07 AD=1.4e-14 AS=1.4e-14 PD=4.8e-07 PS=4.8e-07
mXI51/Xq_inv/MM1 N_NET2_XI51/Xq_inv/MM1_d N_XI51/NET5_XI51/Xq_inv/MM1_g
+ N_GND_XI51/Xq_inv/MM1_s N_GND_XI51/Xq_inv/MM1_b NMOS_VTL L=5e-08 W=1e-07
+ AD=1.2e-14 AS=1.2e-14 PD=4.4e-07 PS=4.4e-07
mXI51/Xinv_loopback/MM1 N_XI51/NET10_XI51/Xinv_loopback/MM1_d
+ N_XI51/NET5_XI51/Xinv_loopback/MM1_g N_GND_XI51/Xinv_loopback/MM1_s
+ N_GND_XI51/Xq_inv/MM1_b NMOS_VTL L=5e-08 W=1e-07 AD=1.2e-14 AS=1.2e-14
+ PD=4.4e-07 PS=4.4e-07
mXI51/Xt_n/Mt_nand_nmos_1 N_XI51/NET5_XI51/Xt_n/Mt_nand_nmos_1_d
+ N_XI51/NET10_XI51/Xt_n/Mt_nand_nmos_1_g XI51/XT_N/NET1 N_GND_XI51/Xq_inv/MM1_b
+ NMOS_VTL L=5e-08 W=1e-07 AD=1.2e-14 AS=1.5e-14 PD=4.4e-07 PS=5e-07
mXI51/Xt_n/Mt_nand_nmos_2 XI51/XT_N/NET1
+ N_XI51/:RESET_XI51/Xt_n/Mt_nand_nmos_2_g XI51/XT_N/NET2
+ N_GND_XI51/Xq_inv/MM1_b NMOS_VTL L=5e-08 W=1e-07 AD=1.5e-14 AS=1.4e-14
+ PD=5e-07 PS=4.8e-07
mXI51/Xt_n/Mt_nand_nmos_state_ctrl XI51/XT_N/NET2
+ N_XI51/:CLK_XI51/Xt_n/Mt_nand_nmos_state_ctrl_g
+ N_GND_XI51/Xt_n/Mt_nand_nmos_state_ctrl_s N_GND_XI51/Xq_inv/MM1_b NMOS_VTL
+ L=5e-08 W=1e-07 AD=1.4e-14 AS=1.2e-14 PD=4.8e-07 PS=4.4e-07
mXI51/X:reset/MM1 N_XI51/:RESET_XI51/X:reset/MM1_d N_RESET_XI51/X:reset/MM1_g
+ N_GND_XI51/X:reset/MM1_s N_GND_XI51/Xq_inv/MM1_b NMOS_VTL L=5e-08 W=1e-07
+ AD=1.2e-14 AS=1.2e-14 PD=4.4e-07 PS=4.4e-07
mXI51/X:clk_inv/MM1 N_XI51/CLK_XI51/X:clk_inv/MM1_d
+ N_XI51/:CLK_XI51/X:clk_inv/MM1_g N_GND_XI51/X:clk_inv/MM1_s
+ N_GND_XI51/Xq_inv/MM1_b NMOS_VTL L=5e-08 W=1e-07 AD=1.2e-14 AS=1.2e-14
+ PD=4.4e-07 PS=4.4e-07
mXI51/Xclk_inv/MM1 N_XI51/:CLK_XI51/Xclk_inv/MM1_d
+ N_CLK_MAIN_XI51/Xclk_inv/MM1_g N_GND_XI51/Xclk_inv/MM1_s
+ N_GND_XI51/Xq_inv/MM1_b NMOS_VTL L=5e-08 W=1e-07 AD=1.2e-14 AS=1.2e-14
+ PD=4.4e-07 PS=4.4e-07
mXI51/Xtg2/MM0 N_XI51/NET5_XI51/Xtg2/MM0_d N_XI51/CLK_XI51/Xtg2/MM0_g
+ N_XI51/NET6_XI51/Xtg2/MM0_s N_GND_XI51/Xq_inv/MM1_b NMOS_VTL L=5e-08 W=1e-07
+ AD=1.2e-14 AS=1.2e-14 PD=4.4e-07 PS=4.4e-07
mXI51/Xt_i1/Mt_i_nmos_state_ctrl XI51/XT_I1/NET2
+ N_XI51/CLK_XI51/Xt_i1/Mt_i_nmos_state_ctrl_g
+ N_GND_XI51/Xt_i1/Mt_i_nmos_state_ctrl_s N_GND_XI51/Xq_inv/MM1_b NMOS_VTL
+ L=5e-08 W=1e-07 AD=1.4e-14 AS=1.2e-14 PD=4.8e-07 PS=4.4e-07
mXI51/Xt_i1/Mt_i_nmos N_XI51/NET1_XI51/Xt_i1/Mt_i_nmos_d
+ N_XI51/NET6_XI51/Xt_i1/Mt_i_nmos_g XI51/XT_I1/NET2 N_GND_XI51/Xq_inv/MM1_b
+ NMOS_VTL L=5e-08 W=1e-07 AD=1.2e-14 AS=1.4e-14 PD=4.4e-07 PS=4.8e-07
mXI51/Xnand/Mnand_nmos_1 N_XI51/NET6_XI51/Xnand/Mnand_nmos_1_d
+ N_XI51/:RESET_XI51/Xnand/Mnand_nmos_1_g XI51/XNAND/NET1
+ N_GND_XI51/Xq_inv/MM1_b NMOS_VTL L=5e-08 W=1e-07 AD=1.2e-14 AS=1.5e-14
+ PD=4.4e-07 PS=5e-07
mXI51/Xnand/Mnand_nmos_2 XI51/XNAND/NET1 N_XI51/NET1_XI51/Xnand/Mnand_nmos_2_g
+ N_GND_XI51/Xnand/Mnand_nmos_2_s N_GND_XI51/Xq_inv/MM1_b NMOS_VTL L=5e-08
+ W=1e-07 AD=1.5e-14 AS=1.2e-14 PD=5e-07 PS=4.4e-07
mXI51/Xtg1/MM0 N_XI51/NET1_XI51/Xtg1/MM0_d N_XI51/:CLK_XI51/Xtg1/MM0_g
+ N_XI51/NET2_XI51/Xtg1/MM0_s N_GND_XI51/Xq_inv/MM1_b NMOS_VTL L=5e-08 W=1e-07
+ AD=1.2e-14 AS=1.2e-14 PD=4.4e-07 PS=4.4e-07
mXI51/X:d_inv/MM1 N_XI51/NET2_XI51/X:d_inv/MM1_d N_XI51/NET8_XI51/X:d_inv/MM1_g
+ N_GND_XI51/X:d_inv/MM1_s N_GND_XI51/Xq_inv/MM1_b NMOS_VTL L=5e-08 W=1e-07
+ AD=1.2e-14 AS=1.2e-14 PD=4.4e-07 PS=4.4e-07
mXI51/Xd_inv/MM1 N_XI51/NET8_XI51/Xd_inv/MM1_d N_B0_XI51/Xd_inv/MM1_g
+ N_GND_XI51/Xd_inv/MM1_s N_GND_XI51/Xq_inv/MM1_b NMOS_VTL L=5e-08 W=1e-07
+ AD=1.2e-14 AS=1.2e-14 PD=4.4e-07 PS=4.4e-07
mXI15/MM23 XI15/NET24 N_NET2_XI15/MM23_g N_GND_XI15/MM23_s N_GND_XI15/MM9_b
+ NMOS_VTL L=5e-08 W=1e-07 AD=1.4e-14 AS=1.15e-14 PD=4.8e-07 PS=4.3e-07
mXI0/MM23 XI0/NET24 N_NET2_XI0/MM23_g N_GND_XI0/MM23_s N_GND_XI0/MM9_b NMOS_VTL
+ L=5e-08 W=1e-07 AD=1.4e-14 AS=1.15e-14 PD=4.8e-07 PS=4.3e-07
mXI66/Xt_i1/Mt_i_nmos_state_ctrl XI66/XT_I1/NET2
+ N_XI66/CLK_XI66/Xt_i1/Mt_i_nmos_state_ctrl_g
+ N_GND_XI66/Xt_i1/Mt_i_nmos_state_ctrl_s N_GND_XI66/Xq_inv/MM1_b NMOS_VTL
+ L=5e-08 W=1e-07 AD=1.4e-14 AS=1.2e-14 PD=4.8e-07 PS=4.4e-07
mXI66/Xt_i1/Mt_i_nmos N_XI66/NET1_XI66/Xt_i1/Mt_i_nmos_d
+ N_XI66/NET6_XI66/Xt_i1/Mt_i_nmos_g XI66/XT_I1/NET2 N_GND_XI66/Xq_inv/MM1_b
+ NMOS_VTL L=5e-08 W=1e-07 AD=1.2e-14 AS=1.4e-14 PD=4.4e-07 PS=4.8e-07
mXI46/MM1 N_NET13_XI46/MM1_d N_NET14_XI46/MM1_g N_GND_XI46/MM1_s
+ N_GND_XI46/MM1_b NMOS_VTL L=5e-08 W=1e-07 AD=1.2e-14 AS=1.2e-14 PD=4.4e-07
+ PS=4.4e-07
mXI32/XI0/MM1 N_XI32/:SEL_XI32/XI0/MM1_d N_GND_XI32/XI0/MM1_g
+ N_GND_XI32/XI0/MM1_s N_GND_XI32/XI0/MM1_b NMOS_VTL L=5e-08 W=1e-07 AD=1.35e-14
+ AS=1.15e-14 PD=4.7e-07 PS=4.3e-07
mXI66/Xnand/Mnand_nmos_1 N_XI66/NET6_XI66/Xnand/Mnand_nmos_1_d
+ N_XI66/:RESET_XI66/Xnand/Mnand_nmos_1_g XI66/XNAND/NET1
+ N_GND_XI66/Xq_inv/MM1_b NMOS_VTL L=5e-08 W=1e-07 AD=1.2e-14 AS=1.5e-14
+ PD=4.4e-07 PS=5e-07
mXI32/MM2 N_NET8_XI32/MM2_d N_XI32/:SEL_XI32/MM2_g N_NET65_XI32/MM2_s
+ N_GND_XI32/XI0/MM1_b NMOS_VTL L=5e-08 W=1e-07 AD=1.2e-14 AS=1.4e-14 PD=4.4e-07
+ PS=4.8e-07
mXI66/Xnand/Mnand_nmos_2 XI66/XNAND/NET1 N_XI66/NET1_XI66/Xnand/Mnand_nmos_2_g
+ N_GND_XI66/Xnand/Mnand_nmos_2_s N_GND_XI66/Xq_inv/MM1_b NMOS_VTL L=5e-08
+ W=1e-07 AD=1.5e-14 AS=1.2e-14 PD=5e-07 PS=4.4e-07
mXI75/MM1 N_NET8_XI75/MM1_d N_NET71_XI75/MM1_g N_GND_XI75/MM1_s N_GND_XI75/MM1_b
+ NMOS_VTL L=5e-08 W=1e-07 AD=1.2e-14 AS=1.2e-14 PD=4.4e-07 PS=4.4e-07
mXI32/MM3 N_NET13_XI32/MM3_d N_GND_XI32/MM3_g N_NET65_XI32/MM2_s
+ N_GND_XI32/XI0/MM1_b NMOS_VTL L=5e-08 W=1e-07 AD=1.15e-14 AS=1.4e-14
+ PD=4.3e-07 PS=4.8e-07
mXI66/Xtg1/MM0 N_XI66/NET1_XI66/Xtg1/MM0_d N_XI66/:CLK_XI66/Xtg1/MM0_g
+ N_XI66/NET2_XI66/Xtg1/MM0_s N_GND_XI66/Xq_inv/MM1_b NMOS_VTL L=5e-08 W=1e-07
+ AD=1.2e-14 AS=1.2e-14 PD=4.4e-07 PS=4.4e-07
mXI66/X:d_inv/MM1 N_XI66/NET2_XI66/X:d_inv/MM1_d N_XI66/NET8_XI66/X:d_inv/MM1_g
+ N_GND_XI66/X:d_inv/MM1_s N_GND_XI66/Xq_inv/MM1_b NMOS_VTL L=5e-08 W=1e-07
+ AD=1.2e-14 AS=1.2e-14 PD=4.4e-07 PS=4.4e-07
mXI66/Xd_inv/MM1 N_XI66/NET8_XI66/Xd_inv/MM1_d N_NET65_XI66/Xd_inv/MM1_g
+ N_GND_XI66/Xd_inv/MM1_s N_GND_XI66/Xq_inv/MM1_b NMOS_VTL L=5e-08 W=1e-07
+ AD=1.2e-14 AS=1.2e-14 PD=4.4e-07 PS=4.4e-07
mXI67/Xq_inv/MM1 N_S1_XI67/Xq_inv/MM1_d N_XI67/NET5_XI67/Xq_inv/MM1_g
+ N_GND_XI67/Xq_inv/MM1_s N_GND_XI67/Xq_inv/MM1_b NMOS_VTL L=5e-08 W=1e-07
+ AD=1.2e-14 AS=1.2e-14 PD=4.4e-07 PS=4.4e-07
mXI16/MM1 N_NET18_XI16/MM1_d N_NET59_XI16/MM1_g N_GND_XI16/MM1_s
+ N_GND_XI16/MM1_b NMOS_VTL L=5e-08 W=1e-07 AD=1.2e-14 AS=1.2e-14 PD=4.4e-07
+ PS=4.4e-07
mXI52/Xq_inv/MM1 N_NET59_XI52/Xq_inv/MM1_d N_XI52/NET5_XI52/Xq_inv/MM1_g
+ N_GND_XI52/Xq_inv/MM1_s N_GND_XI52/Xq_inv/MM1_b NMOS_VTL L=5e-08 W=1e-07
+ AD=1.2e-14 AS=1.2e-14 PD=4.4e-07 PS=4.4e-07
mXI52/Xinv_loopback/MM1 N_XI52/NET10_XI52/Xinv_loopback/MM1_d
+ N_XI52/NET5_XI52/Xinv_loopback/MM1_g N_GND_XI52/Xinv_loopback/MM1_s
+ N_GND_XI52/Xq_inv/MM1_b NMOS_VTL L=5e-08 W=1e-07 AD=1.2e-14 AS=1.2e-14
+ PD=4.4e-07 PS=4.4e-07
mXI52/Xt_n/Mt_nand_nmos_1 N_XI52/NET5_XI52/Xt_n/Mt_nand_nmos_1_d
+ N_XI52/NET10_XI52/Xt_n/Mt_nand_nmos_1_g XI52/XT_N/NET1 N_GND_XI52/Xq_inv/MM1_b
+ NMOS_VTL L=5e-08 W=1e-07 AD=1.2e-14 AS=1.5e-14 PD=4.4e-07 PS=5e-07
mXI52/Xt_n/Mt_nand_nmos_2 XI52/XT_N/NET1
+ N_XI52/:RESET_XI52/Xt_n/Mt_nand_nmos_2_g XI52/XT_N/NET2
+ N_GND_XI52/Xq_inv/MM1_b NMOS_VTL L=5e-08 W=1e-07 AD=1.5e-14 AS=1.4e-14
+ PD=5e-07 PS=4.8e-07
mXI52/Xt_n/Mt_nand_nmos_state_ctrl XI52/XT_N/NET2
+ N_XI52/:CLK_XI52/Xt_n/Mt_nand_nmos_state_ctrl_g
+ N_GND_XI52/Xt_n/Mt_nand_nmos_state_ctrl_s N_GND_XI52/Xq_inv/MM1_b NMOS_VTL
+ L=5e-08 W=1e-07 AD=1.4e-14 AS=1.2e-14 PD=4.8e-07 PS=4.4e-07
mXI52/X:reset/MM1 N_XI52/:RESET_XI52/X:reset/MM1_d N_RESET_XI52/X:reset/MM1_g
+ N_GND_XI52/X:reset/MM1_s N_GND_XI52/Xq_inv/MM1_b NMOS_VTL L=5e-08 W=1e-07
+ AD=1.2e-14 AS=1.2e-14 PD=4.4e-07 PS=4.4e-07
mXI52/X:clk_inv/MM1 N_XI52/CLK_XI52/X:clk_inv/MM1_d
+ N_XI52/:CLK_XI52/X:clk_inv/MM1_g N_GND_XI52/X:clk_inv/MM1_s
+ N_GND_XI52/Xq_inv/MM1_b NMOS_VTL L=5e-08 W=1e-07 AD=1.2e-14 AS=1.2e-14
+ PD=4.4e-07 PS=4.4e-07
mXI52/Xclk_inv/MM1 N_XI52/:CLK_XI52/Xclk_inv/MM1_d
+ N_CLK_MAIN_XI52/Xclk_inv/MM1_g N_GND_XI52/Xclk_inv/MM1_s
+ N_GND_XI52/Xq_inv/MM1_b NMOS_VTL L=5e-08 W=1e-07 AD=1.2e-14 AS=1.2e-14
+ PD=4.4e-07 PS=4.4e-07
mXI52/Xtg2/MM0 N_XI52/NET5_XI52/Xtg2/MM0_d N_XI52/CLK_XI52/Xtg2/MM0_g
+ N_XI52/NET6_XI52/Xtg2/MM0_s N_GND_XI52/Xq_inv/MM1_b NMOS_VTL L=5e-08 W=1e-07
+ AD=1.2e-14 AS=1.2e-14 PD=4.4e-07 PS=4.4e-07
mXI52/Xt_i1/Mt_i_nmos_state_ctrl XI52/XT_I1/NET2
+ N_XI52/CLK_XI52/Xt_i1/Mt_i_nmos_state_ctrl_g
+ N_GND_XI52/Xt_i1/Mt_i_nmos_state_ctrl_s N_GND_XI52/Xq_inv/MM1_b NMOS_VTL
+ L=5e-08 W=1e-07 AD=1.4e-14 AS=1.2e-14 PD=4.8e-07 PS=4.4e-07
mXI52/Xt_i1/Mt_i_nmos N_XI52/NET1_XI52/Xt_i1/Mt_i_nmos_d
+ N_XI52/NET6_XI52/Xt_i1/Mt_i_nmos_g XI52/XT_I1/NET2 N_GND_XI52/Xq_inv/MM1_b
+ NMOS_VTL L=5e-08 W=1e-07 AD=1.2e-14 AS=1.4e-14 PD=4.4e-07 PS=4.8e-07
mXI52/Xnand/Mnand_nmos_1 N_XI52/NET6_XI52/Xnand/Mnand_nmos_1_d
+ N_XI52/:RESET_XI52/Xnand/Mnand_nmos_1_g XI52/XNAND/NET1
+ N_GND_XI52/Xq_inv/MM1_b NMOS_VTL L=5e-08 W=1e-07 AD=1.2e-14 AS=1.5e-14
+ PD=4.4e-07 PS=5e-07
mXI52/Xnand/Mnand_nmos_2 XI52/XNAND/NET1 N_XI52/NET1_XI52/Xnand/Mnand_nmos_2_g
+ N_GND_XI52/Xnand/Mnand_nmos_2_s N_GND_XI52/Xq_inv/MM1_b NMOS_VTL L=5e-08
+ W=1e-07 AD=1.5e-14 AS=1.2e-14 PD=5e-07 PS=4.4e-07
mXI52/Xtg1/MM0 N_XI52/NET1_XI52/Xtg1/MM0_d N_XI52/:CLK_XI52/Xtg1/MM0_g
+ N_XI52/NET2_XI52/Xtg1/MM0_s N_GND_XI52/Xq_inv/MM1_b NMOS_VTL L=5e-08 W=1e-07
+ AD=1.2e-14 AS=1.2e-14 PD=4.4e-07 PS=4.4e-07
mXI52/X:d_inv/MM1 N_XI52/NET2_XI52/X:d_inv/MM1_d N_XI52/NET8_XI52/X:d_inv/MM1_g
+ N_GND_XI52/X:d_inv/MM1_s N_GND_XI52/Xq_inv/MM1_b NMOS_VTL L=5e-08 W=1e-07
+ AD=1.2e-14 AS=1.2e-14 PD=4.4e-07 PS=4.4e-07
mXI52/Xd_inv/MM1 N_XI52/NET8_XI52/Xd_inv/MM1_d N_A1_XI52/Xd_inv/MM1_g
+ N_GND_XI52/Xd_inv/MM1_s N_GND_XI52/Xq_inv/MM1_b NMOS_VTL L=5e-08 W=1e-07
+ AD=1.2e-14 AS=1.2e-14 PD=4.4e-07 PS=4.4e-07
mXI8/MM9 N_XI8/NET8_XI8/MM9_d N_NET18_XI8/MM9_g N_GND_XI8/MM9_s N_GND_XI8/MM9_b
+ NMOS_VTL L=5e-08 W=1.15e-07 AD=1.3225e-14 AS=1.61e-14 PD=4.6e-07 PS=5.1e-07
mXI1/MM9 N_XI1/NET8_XI1/MM9_d N_NET18_XI1/MM9_g N_GND_XI1/MM9_s N_GND_XI1/MM9_b
+ NMOS_VTL L=5e-08 W=1.15e-07 AD=1.3225e-14 AS=1.61e-14 PD=4.6e-07 PS=5.1e-07
mXI67/Xinv_loopback/MM1 N_XI67/NET10_XI67/Xinv_loopback/MM1_d
+ N_XI67/NET5_XI67/Xinv_loopback/MM1_g N_GND_XI67/Xinv_loopback/MM1_s
+ N_GND_XI67/Xq_inv/MM1_b NMOS_VTL L=5e-08 W=1e-07 AD=1.2e-14 AS=1.2e-14
+ PD=4.4e-07 PS=4.4e-07
mXI8/MM8 N_XI8/NET8_XI8/MM8_d N_NET19_XI8/MM8_g N_GND_XI8/MM9_s N_GND_XI8/MM9_b
+ NMOS_VTL L=5e-08 W=1.15e-07 AD=1.61e-14 AS=1.61e-14 PD=5.1e-07 PS=5.1e-07
mXI1/MM8 N_XI1/NET8_XI1/MM8_d N_NET19_XI1/MM8_g N_GND_XI1/MM9_s N_GND_XI1/MM9_b
+ NMOS_VTL L=5e-08 W=1.15e-07 AD=1.61e-14 AS=1.61e-14 PD=5.1e-07 PS=5.1e-07
mXI8/MM5 N_NET38_XI8/MM5_d N_NET37_XI8/MM5_g N_XI8/NET8_XI8/MM8_d
+ N_GND_XI8/MM9_b NMOS_VTL L=5e-08 W=1.15e-07 AD=1.61e-14 AS=1.61e-14 PD=5.1e-07
+ PS=5.1e-07
mXI1/MM5 N_NET17_XI1/MM5_d N_NET16_XI1/MM5_g N_XI1/NET8_XI1/MM8_d
+ N_GND_XI1/MM9_b NMOS_VTL L=5e-08 W=1.15e-07 AD=1.61e-14 AS=1.61e-14 PD=5.1e-07
+ PS=5.1e-07
mXI67/Xt_n/Mt_nand_nmos_1 N_XI67/NET5_XI67/Xt_n/Mt_nand_nmos_1_d
+ N_XI67/NET10_XI67/Xt_n/Mt_nand_nmos_1_g XI67/XT_N/NET1 N_GND_XI67/Xq_inv/MM1_b
+ NMOS_VTL L=5e-08 W=1e-07 AD=1.2e-14 AS=1.5e-14 PD=4.4e-07 PS=5e-07
mXI8/MM6 N_NET38_XI8/MM5_d N_NET18_XI8/MM6_g XI8/NET9 N_GND_XI8/MM9_b NMOS_VTL
+ L=5e-08 W=1.15e-07 AD=1.61e-14 AS=1.61e-14 PD=5.1e-07 PS=5.1e-07
mXI1/MM6 N_NET17_XI1/MM5_d N_NET18_XI1/MM6_g XI1/NET9 N_GND_XI1/MM9_b NMOS_VTL
+ L=5e-08 W=1.15e-07 AD=1.61e-14 AS=1.61e-14 PD=5.1e-07 PS=5.1e-07
mXI67/Xt_n/Mt_nand_nmos_2 XI67/XT_N/NET1
+ N_XI67/:RESET_XI67/Xt_n/Mt_nand_nmos_2_g XI67/XT_N/NET2
+ N_GND_XI67/Xq_inv/MM1_b NMOS_VTL L=5e-08 W=1e-07 AD=1.5e-14 AS=1.4e-14
+ PD=5e-07 PS=4.8e-07
mXI8/MM7 XI8/NET9 N_NET19_XI8/MM7_g N_GND_XI8/MM7_s N_GND_XI8/MM9_b NMOS_VTL
+ L=5e-08 W=1.15e-07 AD=1.61e-14 AS=1.3225e-14 PD=5.1e-07 PS=4.6e-07
mXI1/MM7 XI1/NET9 N_NET19_XI1/MM7_g N_GND_XI1/MM7_s N_GND_XI1/MM9_b NMOS_VTL
+ L=5e-08 W=1.15e-07 AD=1.61e-14 AS=1.3225e-14 PD=5.1e-07 PS=4.6e-07
mXI67/Xt_n/Mt_nand_nmos_state_ctrl XI67/XT_N/NET2
+ N_XI67/:CLK_XI67/Xt_n/Mt_nand_nmos_state_ctrl_g
+ N_GND_XI67/Xt_n/Mt_nand_nmos_state_ctrl_s N_GND_XI67/Xq_inv/MM1_b NMOS_VTL
+ L=5e-08 W=1e-07 AD=1.4e-14 AS=1.2e-14 PD=4.8e-07 PS=4.4e-07
mXI8/MM19 N_XI8/NET22_XI8/MM19_d N_NET18_XI8/MM19_g N_GND_XI8/MM19_s
+ N_GND_XI8/MM9_b NMOS_VTL L=5e-08 W=1e-07 AD=1.4e-14 AS=1.15e-14 PD=4.8e-07
+ PS=4.3e-07
mXI1/MM19 N_XI1/NET22_XI1/MM19_d N_NET18_XI1/MM19_g N_GND_XI1/MM19_s
+ N_GND_XI1/MM9_b NMOS_VTL L=5e-08 W=1e-07 AD=1.4e-14 AS=1.15e-14 PD=4.8e-07
+ PS=4.3e-07
mXI8/MM21 N_XI8/NET22_XI8/MM19_d N_NET19_XI8/MM21_g N_GND_XI8/MM21_s
+ N_GND_XI8/MM9_b NMOS_VTL L=5e-08 W=1e-07 AD=1.4e-14 AS=1.4e-14 PD=4.8e-07
+ PS=4.8e-07
mXI1/MM21 N_XI1/NET22_XI1/MM19_d N_NET19_XI1/MM21_g N_GND_XI1/MM21_s
+ N_GND_XI1/MM9_b NMOS_VTL L=5e-08 W=1e-07 AD=1.4e-14 AS=1.4e-14 PD=4.8e-07
+ PS=4.8e-07
mXI67/X:reset/MM1 N_XI67/:RESET_XI67/X:reset/MM1_d N_RESET_XI67/X:reset/MM1_g
+ N_GND_XI67/X:reset/MM1_s N_GND_XI67/Xq_inv/MM1_b NMOS_VTL L=5e-08 W=1e-07
+ AD=1.2e-14 AS=1.2e-14 PD=4.4e-07 PS=4.4e-07
mXI8/MM18 N_XI8/NET22_XI8/MM18_d N_NET37_XI8/MM18_g N_GND_XI8/MM21_s
+ N_GND_XI8/MM9_b NMOS_VTL L=5e-08 W=1e-07 AD=1.15e-14 AS=1.4e-14 PD=4.3e-07
+ PS=4.8e-07
mXI1/MM18 N_XI1/NET22_XI1/MM18_d N_NET16_XI1/MM18_g N_GND_XI1/MM21_s
+ N_GND_XI1/MM9_b NMOS_VTL L=5e-08 W=1e-07 AD=1.15e-14 AS=1.4e-14 PD=4.3e-07
+ PS=4.8e-07
mXI67/X:clk_inv/MM1 N_XI67/CLK_XI67/X:clk_inv/MM1_d
+ N_XI67/:CLK_XI67/X:clk_inv/MM1_g N_GND_XI67/X:clk_inv/MM1_s
+ N_GND_XI67/Xq_inv/MM1_b NMOS_VTL L=5e-08 W=1e-07 AD=1.2e-14 AS=1.2e-14
+ PD=4.4e-07 PS=4.4e-07
mXI8/MM15 N_NET9_XI8/MM15_d N_NET38_XI8/MM15_g N_XI8/NET22_XI8/MM15_s
+ N_GND_XI8/MM9_b NMOS_VTL L=5e-08 W=9e-08 AD=1.08e-14 AS=1.125e-14 PD=4.2e-07
+ PS=4.3e-07
mXI1/MM15 N_NET15_XI1/MM15_d N_NET17_XI1/MM15_g N_XI1/NET22_XI1/MM15_s
+ N_GND_XI1/MM9_b NMOS_VTL L=5e-08 W=9e-08 AD=1.08e-14 AS=1.125e-14 PD=4.2e-07
+ PS=4.3e-07
mXI67/Xclk_inv/MM1 N_XI67/:CLK_XI67/Xclk_inv/MM1_d
+ N_CLK_MAIN_XI67/Xclk_inv/MM1_g N_GND_XI67/Xclk_inv/MM1_s
+ N_GND_XI67/Xq_inv/MM1_b NMOS_VTL L=5e-08 W=1e-07 AD=1.2e-14 AS=1.2e-14
+ PD=4.4e-07 PS=4.4e-07
mXI8/MM16 N_NET9_XI8/MM16_d N_NET37_XI8/MM16_g XI8/NET23 N_GND_XI8/MM9_b
+ NMOS_VTL L=5e-08 W=1e-07 AD=1.15e-14 AS=1.4e-14 PD=4.3e-07 PS=4.8e-07
mXI1/MM16 N_NET15_XI1/MM16_d N_NET16_XI1/MM16_g XI1/NET23 N_GND_XI1/MM9_b
+ NMOS_VTL L=5e-08 W=1e-07 AD=1.15e-14 AS=1.4e-14 PD=4.3e-07 PS=4.8e-07
mXI8/MM17 XI8/NET23 N_NET18_XI8/MM17_g XI8/NET24 N_GND_XI8/MM9_b NMOS_VTL
+ L=5e-08 W=1e-07 AD=1.4e-14 AS=1.4e-14 PD=4.8e-07 PS=4.8e-07
mXI1/MM17 XI1/NET23 N_NET18_XI1/MM17_g XI1/NET24 N_GND_XI1/MM9_b NMOS_VTL
+ L=5e-08 W=1e-07 AD=1.4e-14 AS=1.4e-14 PD=4.8e-07 PS=4.8e-07
mXI17/MM1 N_NET19_XI17/MM1_d N_NET61_XI17/MM1_g N_GND_XI17/MM1_s
+ N_GND_XI17/MM1_b NMOS_VTL L=5e-08 W=1e-07 AD=1.2e-14 AS=1.2e-14 PD=4.4e-07
+ PS=4.4e-07
mXI53/Xq_inv/MM1 N_NET61_XI53/Xq_inv/MM1_d N_XI53/NET5_XI53/Xq_inv/MM1_g
+ N_GND_XI53/Xq_inv/MM1_s N_GND_XI53/Xq_inv/MM1_b NMOS_VTL L=5e-08 W=1e-07
+ AD=1.2e-14 AS=1.2e-14 PD=4.4e-07 PS=4.4e-07
mXI53/Xinv_loopback/MM1 N_XI53/NET10_XI53/Xinv_loopback/MM1_d
+ N_XI53/NET5_XI53/Xinv_loopback/MM1_g N_GND_XI53/Xinv_loopback/MM1_s
+ N_GND_XI53/Xq_inv/MM1_b NMOS_VTL L=5e-08 W=1e-07 AD=1.2e-14 AS=1.2e-14
+ PD=4.4e-07 PS=4.4e-07
mXI53/Xt_n/Mt_nand_nmos_1 N_XI53/NET5_XI53/Xt_n/Mt_nand_nmos_1_d
+ N_XI53/NET10_XI53/Xt_n/Mt_nand_nmos_1_g XI53/XT_N/NET1 N_GND_XI53/Xq_inv/MM1_b
+ NMOS_VTL L=5e-08 W=1e-07 AD=1.2e-14 AS=1.5e-14 PD=4.4e-07 PS=5e-07
mXI53/Xt_n/Mt_nand_nmos_2 XI53/XT_N/NET1
+ N_XI53/:RESET_XI53/Xt_n/Mt_nand_nmos_2_g XI53/XT_N/NET2
+ N_GND_XI53/Xq_inv/MM1_b NMOS_VTL L=5e-08 W=1e-07 AD=1.5e-14 AS=1.4e-14
+ PD=5e-07 PS=4.8e-07
mXI53/Xt_n/Mt_nand_nmos_state_ctrl XI53/XT_N/NET2
+ N_XI53/:CLK_XI53/Xt_n/Mt_nand_nmos_state_ctrl_g
+ N_GND_XI53/Xt_n/Mt_nand_nmos_state_ctrl_s N_GND_XI53/Xq_inv/MM1_b NMOS_VTL
+ L=5e-08 W=1e-07 AD=1.4e-14 AS=1.2e-14 PD=4.8e-07 PS=4.4e-07
mXI53/X:reset/MM1 N_XI53/:RESET_XI53/X:reset/MM1_d N_RESET_XI53/X:reset/MM1_g
+ N_GND_XI53/X:reset/MM1_s N_GND_XI53/Xq_inv/MM1_b NMOS_VTL L=5e-08 W=1e-07
+ AD=1.2e-14 AS=1.2e-14 PD=4.4e-07 PS=4.4e-07
mXI53/X:clk_inv/MM1 N_XI53/CLK_XI53/X:clk_inv/MM1_d
+ N_XI53/:CLK_XI53/X:clk_inv/MM1_g N_GND_XI53/X:clk_inv/MM1_s
+ N_GND_XI53/Xq_inv/MM1_b NMOS_VTL L=5e-08 W=1e-07 AD=1.2e-14 AS=1.2e-14
+ PD=4.4e-07 PS=4.4e-07
mXI53/Xclk_inv/MM1 N_XI53/:CLK_XI53/Xclk_inv/MM1_d
+ N_CLK_MAIN_XI53/Xclk_inv/MM1_g N_GND_XI53/Xclk_inv/MM1_s
+ N_GND_XI53/Xq_inv/MM1_b NMOS_VTL L=5e-08 W=1e-07 AD=1.2e-14 AS=1.2e-14
+ PD=4.4e-07 PS=4.4e-07
mXI53/Xtg2/MM0 N_XI53/NET5_XI53/Xtg2/MM0_d N_XI53/CLK_XI53/Xtg2/MM0_g
+ N_XI53/NET6_XI53/Xtg2/MM0_s N_GND_XI53/Xq_inv/MM1_b NMOS_VTL L=5e-08 W=1e-07
+ AD=1.2e-14 AS=1.2e-14 PD=4.4e-07 PS=4.4e-07
mXI53/Xt_i1/Mt_i_nmos_state_ctrl XI53/XT_I1/NET2
+ N_XI53/CLK_XI53/Xt_i1/Mt_i_nmos_state_ctrl_g
+ N_GND_XI53/Xt_i1/Mt_i_nmos_state_ctrl_s N_GND_XI53/Xq_inv/MM1_b NMOS_VTL
+ L=5e-08 W=1e-07 AD=1.4e-14 AS=1.2e-14 PD=4.8e-07 PS=4.4e-07
mXI53/Xt_i1/Mt_i_nmos N_XI53/NET1_XI53/Xt_i1/Mt_i_nmos_d
+ N_XI53/NET6_XI53/Xt_i1/Mt_i_nmos_g XI53/XT_I1/NET2 N_GND_XI53/Xq_inv/MM1_b
+ NMOS_VTL L=5e-08 W=1e-07 AD=1.2e-14 AS=1.4e-14 PD=4.4e-07 PS=4.8e-07
mXI53/Xnand/Mnand_nmos_1 N_XI53/NET6_XI53/Xnand/Mnand_nmos_1_d
+ N_XI53/:RESET_XI53/Xnand/Mnand_nmos_1_g XI53/XNAND/NET1
+ N_GND_XI53/Xq_inv/MM1_b NMOS_VTL L=5e-08 W=1e-07 AD=1.2e-14 AS=1.5e-14
+ PD=4.4e-07 PS=5e-07
mXI53/Xnand/Mnand_nmos_2 XI53/XNAND/NET1 N_XI53/NET1_XI53/Xnand/Mnand_nmos_2_g
+ N_GND_XI53/Xnand/Mnand_nmos_2_s N_GND_XI53/Xq_inv/MM1_b NMOS_VTL L=5e-08
+ W=1e-07 AD=1.5e-14 AS=1.2e-14 PD=5e-07 PS=4.4e-07
mXI53/Xtg1/MM0 N_XI53/NET1_XI53/Xtg1/MM0_d N_XI53/:CLK_XI53/Xtg1/MM0_g
+ N_XI53/NET2_XI53/Xtg1/MM0_s N_GND_XI53/Xq_inv/MM1_b NMOS_VTL L=5e-08 W=1e-07
+ AD=1.2e-14 AS=1.2e-14 PD=4.4e-07 PS=4.4e-07
mXI53/X:d_inv/MM1 N_XI53/NET2_XI53/X:d_inv/MM1_d N_XI53/NET8_XI53/X:d_inv/MM1_g
+ N_GND_XI53/X:d_inv/MM1_s N_GND_XI53/Xq_inv/MM1_b NMOS_VTL L=5e-08 W=1e-07
+ AD=1.2e-14 AS=1.2e-14 PD=4.4e-07 PS=4.4e-07
mXI53/Xd_inv/MM1 N_XI53/NET8_XI53/Xd_inv/MM1_d N_B1_XI53/Xd_inv/MM1_g
+ N_GND_XI53/Xd_inv/MM1_s N_GND_XI53/Xq_inv/MM1_b NMOS_VTL L=5e-08 W=1e-07
+ AD=1.2e-14 AS=1.2e-14 PD=4.4e-07 PS=4.4e-07
mXI8/MM23 XI8/NET24 N_NET19_XI8/MM23_g N_GND_XI8/MM23_s N_GND_XI8/MM9_b NMOS_VTL
+ L=5e-08 W=1e-07 AD=1.4e-14 AS=1.15e-14 PD=4.8e-07 PS=4.3e-07
mXI1/MM23 XI1/NET24 N_NET19_XI1/MM23_g N_GND_XI1/MM23_s N_GND_XI1/MM9_b NMOS_VTL
+ L=5e-08 W=1e-07 AD=1.4e-14 AS=1.15e-14 PD=4.8e-07 PS=4.3e-07
mXI67/Xtg2/MM0 N_XI67/NET5_XI67/Xtg2/MM0_d N_XI67/CLK_XI67/Xtg2/MM0_g
+ N_XI67/NET6_XI67/Xtg2/MM0_s N_GND_XI67/Xq_inv/MM1_b NMOS_VTL L=5e-08 W=1e-07
+ AD=1.2e-14 AS=1.2e-14 PD=4.4e-07 PS=4.4e-07
mXI67/Xt_i1/Mt_i_nmos_state_ctrl XI67/XT_I1/NET2
+ N_XI67/CLK_XI67/Xt_i1/Mt_i_nmos_state_ctrl_g
+ N_GND_XI67/Xt_i1/Mt_i_nmos_state_ctrl_s N_GND_XI67/Xq_inv/MM1_b NMOS_VTL
+ L=5e-08 W=1e-07 AD=1.4e-14 AS=1.2e-14 PD=4.8e-07 PS=4.4e-07
mXI33/XI0/MM1 N_XI33/:SEL_XI33/XI0/MM1_d N_GND_XI33/XI0/MM1_g
+ N_GND_XI33/XI0/MM1_s N_GND_XI33/XI0/MM1_b NMOS_VTL L=5e-08 W=1e-07 AD=1.35e-14
+ AS=1.15e-14 PD=4.7e-07 PS=4.3e-07
mXI67/Xt_i1/Mt_i_nmos N_XI67/NET1_XI67/Xt_i1/Mt_i_nmos_d
+ N_XI67/NET6_XI67/Xt_i1/Mt_i_nmos_g XI67/XT_I1/NET2 N_GND_XI67/Xq_inv/MM1_b
+ NMOS_VTL L=5e-08 W=1e-07 AD=1.2e-14 AS=1.4e-14 PD=4.4e-07 PS=4.8e-07
mXI33/MM2 N_NET15_XI33/MM2_d N_XI33/:SEL_XI33/MM2_g N_NET62_XI33/MM2_s
+ N_GND_XI33/XI0/MM1_b NMOS_VTL L=5e-08 W=1e-07 AD=1.2e-14 AS=1.4e-14 PD=4.4e-07
+ PS=4.8e-07
mXI67/Xnand/Mnand_nmos_1 N_XI67/NET6_XI67/Xnand/Mnand_nmos_1_d
+ N_XI67/:RESET_XI67/Xnand/Mnand_nmos_1_g XI67/XNAND/NET1
+ N_GND_XI67/Xq_inv/MM1_b NMOS_VTL L=5e-08 W=1e-07 AD=1.2e-14 AS=1.5e-14
+ PD=4.4e-07 PS=5e-07
mXI33/MM3 N_NET9_XI33/MM3_d N_GND_XI33/MM3_g N_NET62_XI33/MM2_s
+ N_GND_XI33/XI0/MM1_b NMOS_VTL L=5e-08 W=1e-07 AD=1.15e-14 AS=1.4e-14
+ PD=4.3e-07 PS=4.8e-07
mXI67/Xnand/Mnand_nmos_2 XI67/XNAND/NET1 N_XI67/NET1_XI67/Xnand/Mnand_nmos_2_g
+ N_GND_XI67/Xnand/Mnand_nmos_2_s N_GND_XI67/Xq_inv/MM1_b NMOS_VTL L=5e-08
+ W=1e-07 AD=1.5e-14 AS=1.2e-14 PD=5e-07 PS=4.4e-07
mXI67/Xtg1/MM0 N_XI67/NET1_XI67/Xtg1/MM0_d N_XI67/:CLK_XI67/Xtg1/MM0_g
+ N_XI67/NET2_XI67/Xtg1/MM0_s N_GND_XI67/Xq_inv/MM1_b NMOS_VTL L=5e-08 W=1e-07
+ AD=1.2e-14 AS=1.2e-14 PD=4.4e-07 PS=4.4e-07
mXI67/X:d_inv/MM1 N_XI67/NET2_XI67/X:d_inv/MM1_d N_XI67/NET8_XI67/X:d_inv/MM1_g
+ N_GND_XI67/X:d_inv/MM1_s N_GND_XI67/Xq_inv/MM1_b NMOS_VTL L=5e-08 W=1e-07
+ AD=1.2e-14 AS=1.2e-14 PD=4.4e-07 PS=4.4e-07
mXI67/Xd_inv/MM1 N_XI67/NET8_XI67/Xd_inv/MM1_d N_NET62_XI67/Xd_inv/MM1_g
+ N_GND_XI67/Xd_inv/MM1_s N_GND_XI67/Xq_inv/MM1_b NMOS_VTL L=5e-08 W=1e-07
+ AD=1.2e-14 AS=1.2e-14 PD=4.4e-07 PS=4.4e-07
mXI56/Xq_inv/MM1 N_NET58_XI56/Xq_inv/MM1_d N_XI56/NET5_XI56/Xq_inv/MM1_g
+ N_GND_XI56/Xq_inv/MM1_s N_GND_XI56/Xq_inv/MM1_b NMOS_VTL L=5e-08 W=1e-07
+ AD=1.2e-14 AS=1.2e-14 PD=4.4e-07 PS=4.4e-07
mXI56/Xinv_loopback/MM1 N_XI56/NET10_XI56/Xinv_loopback/MM1_d
+ N_XI56/NET5_XI56/Xinv_loopback/MM1_g N_GND_XI56/Xinv_loopback/MM1_s
+ N_GND_XI56/Xq_inv/MM1_b NMOS_VTL L=5e-08 W=1e-07 AD=1.2e-14 AS=1.2e-14
+ PD=4.4e-07 PS=4.4e-07