* File: Eight_Bit_CSL_Adder.pex.netlist.pex
* Created: Sun Dec 17 18:13:17 2023
* Program "Calibre xRC"
* Version "v2014.4_28.20"
* Nominal Temperature: 27C
* Circuit Temperature: 27C
* 
.subckt PM_EIGHT_BIT_CSL_ADDER%VDD 3 6 9 12 15 18 21 24 27 30 33 36 104 105 106
+ 107 108 109 110 111 112 113 114 115 116 117 118 119 120 121 122 123 124 125
+ 126 127 128 129 130 131 132 133 134 135 136 137 138 139 140 141 142 143 144
+ 145 146 147 148 149 150 151 152 153 154 155 156 157 158 159 160 161 162 163
+ 164 165 166 167 168 169 170 171 172 173 174 175 176 177 178 179 180 181 182
+ 183 184 185 186 187 188 189 190 191 192 193 194 195 196 197 198 199 200 201
+ 202 203 204 205 206 207 208 209 210 211 212 213 214 215 216 217 218 219 220
+ 221 222 223 224 225 226 227 228 229 230 231 232 233 234 235 236 237 238 239
+ 240 241 242 243 244 245 246 247 248 249 250 251 252 253 254 255 256 257 258
+ 259 260 261 262 263 264 265 266 267 268 269 270 271 272 273 274 275 276 277
+ 278 279 280 281 282 283 284 285 286 287 288 289 290 291 292 293 294 295 296
+ 297 298 299 300 301 302 303 304 305 306 307 308 309 310 311 312 313 314 315
+ 316 317 318 319 320 321 322 323 324 325 326 327 328 329 330 331 332 333 334
+ 335 336 337 338 339 340 341 342 343 344 345 346 347 348 349 350 351 352 353
+ 354 355 356 357 358 359 360 361 362 363 364 365 366 367 368 369 370 371 372
+ 373 374 375 376 377 378 379 380 381 382 383 384 385 386 387 388 389 390 391
+ 392 393 394 395 396 397 398 399 400 401 402 403 404 405 406 407 408 409 410
+ 411 412 413 414 415 416 417 418 419 420 421 422 423 424 425 426 427 428 429
+ 430 431 432 433 434 435 436 437 438 439 440 441 442 443 444 445 446 447 448
+ 449 450 451 452 453 454 455 456 457 458 459 460 461 462 463 464 465 466 467
+ 468 469 470 471 472 473 474 475 476 477 478 479 480 481 482 483 484 485 486
+ 487 488 489 490 491 492 493 494 495 496 497 498 499 500 501 502 503 504 505
+ 506 507 508 509 510 511 512 513 514 515 516 517 518 519 520 521 522 523 524
+ 525 526 527 528 529 530 531 532 533 534 535 536 537 538 539 540 541 542 543
+ 544 545 546 547 548 549 550 618 624 626 633 635 641 651 655 659 663 667 671
+ 675 679 683 687 691 700 704 705 708 710 712 714 716 718 720 722 724 726 739
+ 743 753 755 761 771 775 778 779 785 791 807 809 811 815 819 823 827 831 835
+ 839 843 847 851 865 867 869 871 873 875 877 879 881 883 895 905 911 925 926
+ 928 937 939 941 951 955 959 963 967 971 975 979 983 987 991 1000 1002 1004
+ 1012 1014 1017 1019 1021 1023 1025 1027 1029 1031 1033 1035 1037 1048 1062
+ 1064 1066 1080 1082 1084 1090 1096 1113 1117 1121 1125 1129 1133 1137 1141
+ 1145 1149 1153 1162 1170 1172 1175 1177 1179 1181 1183 1185 1187 1189 1191
+ 1193 1195 1200 1206 1212 1225 1227 1232 1234 1240 1250 1254 1258 1262 1266
+ 1270 1274 1278 1282 1286 1290 1299 1301 1308 1310 1312 1314 1316 1318 1320
+ 1322 1324 1326 1327 1339 1349 1351 1357 1367 1369 1375 1381 1387 1397 1401
+ 1405 1409 1413 1417 1421 1425 1429 1433 1437 1441 1459 1461 1463 1465 1467
+ 1469 1471 1473 1475 1477 1485 1495 1501 1507 1513 1527 1529 1531 1541 1545
+ 1549 1553 1557 1561 1565 1569 1573 1577 1581 1590 1592 1594 1602 1604 1607
+ 1609 1611 1613 1615 1617 1619 1621 1623 1625 1627 1632 1644 1654 1656 1670
+ 1672 1674 1680 1686 1700 1709 1713 1717 1721 1725 1729 1733 1737 1741 1745
+ 1749 1758 1762 1765 1767 1769 1771 1773 1775 1777 1779 1781 1783 1785 1790
+ 1796 1809 1815 1828 1834 1840 1842 1849 1851 1861 1865 1869 1873 1877 1881
+ 1885 1889 1893 1897 1901 1910 1914 1915 1922 1924 1926 1928 1930 1932 1934
+ 1936 1938 1940 1941 1955 1959 1969 1971 1977 1987 1991 1994 1995 2001 2007
+ 2019 2021 2025 2029 2033 2037 2041 2045 2049 2053 2057 2061 2078 2081 2083
+ 2085 2087 2089 2091 2093 2095 2097 2099 2111 2123 2136 2142 2146 2147 2148
+ 2154 2164 2168 2172 2176 2180 2184 2188 2192 2196 2200 2204 2213 2215 2217
+ 2221 2224 2226 2228 2230 2232 2234 2236 2238 2240 2242 2244 2249 2261 2271
+ 2273 2279 2289 2291 2297 2303 2317 2326 2330 2334 2338 2342 2346 2350 2354
+ 2358 2362 2366 2375 2379 2382 2384 2386 2388 2390 2392 2394 2396 2398 2400
+ 2402 2407 2413 2419 2432 2436 2437 2438 2444 2454 2458 2462 2466 2470 2474
+ 2478 2482 2486 2490 2494 2503 2505 2511 2514 2516 2518 2520 2522 2524 2526
+ 2528 2530 2532 2543 2557 2559 2561 2571 2573 2579 2585 2591 2601 2605 2609
+ 2613 2617 2621 2625 2629 2633 2637 2641 2645 2662 2665 2667 2669 2671 2673
+ 2675 2677 2679 2681 2683 2701 2707 2713 2726 2730 2731 2732 2742 2746 2750
+ 2754 2758 2762 2766 2770 2774 2778 2782 2795 2797 2799 2803 2805 2808 2810
+ 2812 2814 2816 2818 2820 2822 2824 2826 2828 2833 2845 2855 2857 2871 2873
+ 2875 2881 2887 2901 2910 2914 2918 2922 2926 2930 2934 2938 2942 2946 2950
+ 2959 2963 2966 2968 2970 2972 2974 2976 2978 2980 2982 2984 2986 2991 2997
+ 3003 3005 3013 3019 3027 3029 3031 3033 3035 3037 3039 3041 3043 3045 3047
+ 3049 3051 3101 3110 3113 3114 3115 3121 3122 3131 3132 3134 3136 3137 3139
+ 3140 3141 3147 3148 3150 3151 3153 3155 3159 3166 3168 3169 3171 3172 3173
+ 3179 3182 3189 3190 3195 3196 3198 3199 3201 3202 3203 3209 3210 3212 3213
+ 3216 3220 3225 3226 3228 3229 3230 3236 3241 3246 3247 3250 3252 3253 3255
+ 3256 3257 3263 3264 3266 3267 3270 3280 3281 3283 3284 3286 3287 3288 3294
+ 3302 3305 3307 3311 3313 3314 3316 3317 3318 3324 3325 3326 3328 3329 3331
+ 3339 3341 3342 3344 3345 3346 3352 3361 3362 3363 3365 3367 3368 3370 3371
+ 3372 3378 3380 3383 3385 3395 3397 3398 3400 3401 3402 3408 3409 3418 3419
+ 3420 3425 3427 3428 3430 3431 3432 3438 3439 3441 3442 3445 3449 3454 3455
+ 3457 3458 3459 3465 3470 3475 3476 3479 3481 3482 3484 3485 3486 3492 3493
+ 3495 3496 3497 3499 3505 3509 3511 3512 3514 3515 3516 3522 3528 3533 3534
+ 3539 3541 3542 3544 3545 3546 3552 3553 3554 3556 3564 3565 3566 3568 3569
+ 3571 3572 3575 3580 3583 3585 3589 3594 3597 3602 3606 3609 3611 3616 3617
+ 3621 3626 3631 3634 3636 3641 3646 3651 3654 3656 3661 3666 3669 3670 3673
+ 3674 3676 3677 3678 3679 3680 3681 3683 3685 3687 3688 3695 3697 3699 3713
+ 3720 3722 3736 3738 3748 3754 3756 3770 3772 3774 3788 3790 3804 3806 3820
+ 3822 3841 3844 3846 3939 3943 3957 3961 3971 3975 3985 3989 4002 4006 4019
+ 4023 4036 4040 4053 4057 4067 4075 4077 4087 4089 4097 4101 4103 4111 4113
+ 4124 4133 4138 4143 4148 4153 4158 4163 4168 4173 4182 4187 4196 4201 4210
+ 4215 4224 4229 4238 4243 4248 4253 4256 4260 4270 4275 4290 4295 4305 4310
+ 4320 4325 4340 4345 4355 4360 4370 4375 4385 4390 4406 4421 4426 4441 4456
+ 4471 4476 4491 4506 4521 4536
c7395 4536 0 0.245362f
c7396 4521 0 0.149498f
c7397 4506 0 0.152539f
c7398 4491 0 0.150634f
c7399 4476 0 0.140375f
c7400 4471 0 0.14226f
c7401 4456 0 0.149808f
c7402 4441 0 0.149391f
c7403 4426 0 0.144203f
c7404 4421 0 0.192112f
c7405 4406 0 0.158354f
c7406 4390 0 0.101598f
c7407 4385 0 0.102011f
c7408 4375 0 0.102792f
c7409 4370 0 0.102085f
c7410 4360 0 0.103101f
c7411 4355 0 0.10202f
c7412 4345 0 0.102746f
c7413 4340 0 0.11434f
c7414 4325 0 0.129143f
c7415 4320 0 0.101979f
c7416 4310 0 0.10277f
c7417 4305 0 0.102126f
c7418 4295 0 0.102683f
c7419 4290 0 0.101663f
c7420 4275 0 0.102296f
c7421 4270 0 0.119748f
c7422 4260 0 0.125966f
c7423 4256 0 0.0180824f
c7424 4253 0 0.060594f
c7425 4248 0 0.0208291f
c7426 4243 0 0.01751f
c7427 4238 0 0.01751f
c7428 4229 0 0.01751f
c7429 4224 0 0.01751f
c7430 4215 0 0.01751f
c7431 4210 0 0.01751f
c7432 4201 0 0.01751f
c7433 4196 0 0.01751f
c7434 4187 0 0.01751f
c7435 4182 0 0.01751f
c7436 4173 0 0.01751f
c7437 4168 0 0.01751f
c7438 4163 0 0.0165978f
c7439 4158 0 0.01751f
c7440 4153 0 0.01751f
c7441 4148 0 0.0165978f
c7442 4143 0 0.0126171f
c7443 4138 0 0.01751f
c7444 4133 0 0.01751f
c7445 4124 0 0.0153667f
c7446 4113 0 0.00628433f
c7447 4111 0 0.00277545f
c7448 4103 0 0.0063118f
c7449 4101 0 0.00454711f
c7450 4097 0 0.00717031f
c7451 4089 0 0.00625022f
c7452 4087 0 0.00306659f
c7453 4077 0 0.0063118f
c7454 4075 0 0.00454711f
c7455 4067 0 0.0666927f
c7456 4057 0 0.0580779f
c7457 4053 0 0.0578739f
c7458 4040 0 0.0580248f
c7459 4036 0 0.0578676f
c7460 4023 0 0.058055f
c7461 4019 0 0.0578755f
c7462 4006 0 0.0580381f
c7463 4002 0 0.0578617f
c7464 3989 0 0.0580779f
c7465 3985 0 0.0578684f
c7466 3975 0 0.0580306f
c7467 3971 0 0.0578746f
c7468 3961 0 0.0581052f
c7469 3957 0 0.0579214f
c7470 3943 0 0.0580165f
c7471 3939 0 0.0579983f
c7472 3921 0 0.0219708f
c7473 3918 0 0.0217719f
c7474 3911 0 0.0217719f
c7475 3910 0 0.0217719f
c7476 3903 0 0.0217719f
c7477 3902 0 0.0217719f
c7478 3895 0 0.0217719f
c7479 3894 0 0.0217719f
c7480 3881 0 0.0217719f
c7481 3880 0 0.0217719f
c7482 3873 0 0.0217719f
c7483 3872 0 0.0217719f
c7484 3865 0 0.0217719f
c7485 3864 0 0.0217719f
c7486 3857 0 0.0219708f
c7487 3856 0 0.0217719f
c7488 3855 0 0.0217719f
c7489 3848 0 0.0219708f
c7490 3847 0 0.0219708f
c7491 3846 0 0.411962f
c7492 3844 0 0.349529f
c7493 3842 0 0.0767461f
c7494 3841 0 0.244033f
c7495 3829 0 0.0536687f
c7496 3822 0 0.26456f
c7497 3820 0 0.069756f
c7498 3813 0 0.0533867f
c7499 3806 0 0.140363f
c7500 3804 0 0.0739594f
c7501 3797 0 0.0536687f
c7502 3790 0 0.140691f
c7503 3788 0 0.069756f
c7504 3781 0 0.0533867f
c7505 3774 0 0.140609f
c7506 3772 0 0.0463316f
c7507 3770 0 0.154814f
c7508 3763 0 0.0536687f
c7509 3756 0 0.0829481f
c7510 3754 0 0.069756f
c7511 3745 0 0.0533867f
c7512 3738 0 0.162825f
c7513 3736 0 0.0739594f
c7514 3729 0 0.0536687f
c7515 3722 0 0.140461f
c7516 3720 0 2.41135f
c7517 3713 0 0.069756f
c7518 3706 0 0.0533867f
c7519 3699 0 0.150682f
c7520 3698 0 0.071742f
c7521 3697 0 0.177484f
c7522 3695 0 0.0545067f
c7523 3689 0 0.071742f
c7524 3688 0 0.333814f
c7525 3687 0 0.411962f
c7526 3685 0 0.170789f
c7527 3683 0 0.0954684f
c7528 3681 0 0.0165302f
c7529 3680 0 0.0165302f
c7530 3679 0 0.0165302f
c7531 3678 0 0.020252f
c7532 3677 0 0.0165302f
c7533 3676 0 0.020252f
c7534 3674 0 0.00491035f
c7535 3673 0 0.0419932f
c7536 3670 0 0.00455941f
c7537 3669 0 0.0573049f
c7538 3666 0 0.0240207f
c7539 3661 0 0.052038f
c7540 3656 0 0.0195929f
c7541 3654 0 0.00457913f
c7542 3651 0 0.0225309f
c7543 3646 0 0.052038f
c7544 3641 0 0.0520274f
c7545 3636 0 0.0176488f
c7546 3634 0 0.00345825f
c7547 3631 0 0.0200309f
c7548 3626 0 0.0442087f
c7549 3621 0 0.0647428f
c7550 3617 0 0.00607191f
c7551 3616 0 0.0492876f
c7552 3611 0 0.0213996f
c7553 3609 0 0.00347509f
c7554 3606 0 0.0243042f
c7555 3602 0 0.0104058f
c7556 3597 0 0.0503399f
c7557 3594 0 0.0104058f
c7558 3589 0 0.0487045f
c7559 3585 0 0.0192222f
c7560 3583 0 0.00345825f
c7561 3580 0 0.0226036f
c7562 3575 0 0.0501582f
c7563 3572 0 0.0596776f
c7564 3571 0 0.00205056f
c7565 3570 0 0.00237014f
c7566 3569 0 0.00206017f
c7567 3568 0 0.00205522f
c7568 3567 0 0.00205084f
c7569 3566 0 0.00204979f
c7570 3565 0 0.00184144f
c7571 3564 0 0.00177457f
c7572 3563 0 0.0022175f
c7573 3562 0 0.00193284f
c7574 3561 0 8.31821e-19
c7575 3560 0 0.00166779f
c7576 3559 0 0.0023258f
c7577 3557 0 0.00145196f
c7578 3556 0 0.00237014f
c7579 3555 0 0.00237014f
c7580 3554 0 0.00184144f
c7581 3553 0 0.00184144f
c7582 3552 0 0.0142029f
c7583 3548 0 0.00237014f
c7584 3547 0 0.00237014f
c7585 3546 0 0.00184144f
c7586 3545 0 0.00139794f
c7587 3544 0 0.00166813f
c7588 3543 0 0.00237014f
c7589 3542 0 0.00192278f
c7590 3541 0 0.0019013f
c7591 3540 0 0.00237014f
c7592 3539 0 0.00188485f
c7593 3534 0 0.00558211f
c7594 3533 0 0.00164601f
c7595 3532 0 0.00237014f
c7596 3531 0 0.00191471f
c7597 3530 0 6.89675e-19
c7598 3529 0 6.89675e-19
c7599 3528 0 0.0019013f
c7600 3527 0 7.82269e-19
c7601 3526 0 7.82269e-19
c7602 3525 0 7.97701e-19
c7603 3524 0 7.97701e-19
c7604 3523 0 0.00237014f
c7605 3522 0 0.0142323f
c7606 3518 0 0.00237014f
c7607 3517 0 0.00237014f
c7608 3516 0 0.00184144f
c7609 3515 0 0.00143108f
c7610 3514 0 0.00168365f
c7611 3513 0 0.00237014f
c7612 3512 0 0.00192278f
c7613 3511 0 0.0019013f
c7614 3510 0 0.00237014f
c7615 3509 0 0.00188485f
c7616 3505 0 0.00172216f
c7617 3504 0 6.89675e-19
c7618 3503 0 6.89675e-19
c7619 3499 0 0.0482472f
c7620 3497 0 0.00223623f
c7621 3496 0 0.00129684f
c7622 3495 0 0.00237014f
c7623 3494 0 0.00237014f
c7624 3493 0 0.00184144f
c7625 3492 0 0.0143161f
c7626 3488 0 0.00237014f
c7627 3487 0 0.00237014f
c7628 3486 0 0.00184144f
c7629 3485 0 0.00143108f
c7630 3484 0 0.00168365f
c7631 3483 0 0.00237014f
c7632 3482 0 0.00192278f
c7633 3481 0 0.0019013f
c7634 3480 0 0.00237014f
c7635 3479 0 0.00184144f
c7636 3478 0 0.00140436f
c7637 3476 0 0.00470334f
c7638 3475 0 0.00164601f
c7639 3474 0 0.00237014f
c7640 3473 0 0.00191471f
c7641 3472 0 6.89675e-19
c7642 3471 0 6.89675e-19
c7643 3470 0 0.0019013f
c7644 3469 0 7.82269e-19
c7645 3468 0 7.82269e-19
c7646 3467 0 7.97701e-19
c7647 3466 0 7.97701e-19
c7648 3465 0 0.0142133f
c7649 3461 0 0.00237014f
c7650 3460 0 0.00237014f
c7651 3459 0 0.00184144f
c7652 3458 0 0.00143108f
c7653 3457 0 0.00168365f
c7654 3456 0 0.00237014f
c7655 3455 0 0.00192278f
c7656 3454 0 0.0019013f
c7657 3453 0 0.00237014f
c7658 3452 0 0.0020975f
c7659 3451 0 6.89675e-19
c7660 3450 0 6.89675e-19
c7661 3449 0 0.00172216f
c7662 3445 0 0.0481091f
c7663 3443 0 0.00237014f
c7664 3442 0 0.00129684f
c7665 3441 0 0.00237014f
c7666 3440 0 0.00237014f
c7667 3439 0 0.00184144f
c7668 3438 0 0.0141554f
c7669 3434 0 0.00237014f
c7670 3433 0 0.00237014f
c7671 3432 0 0.00184144f
c7672 3431 0 0.00143108f
c7673 3430 0 0.00168365f
c7674 3429 0 0.00237014f
c7675 3428 0 0.00192278f
c7676 3427 0 0.0019013f
c7677 3426 0 0.00237014f
c7678 3425 0 0.00188485f
c7679 3420 0 0.00558211f
c7680 3419 0 0.00184144f
c7681 3418 0 0.00164601f
c7682 3417 0 0.00237014f
c7683 3416 0 6.89675e-19
c7684 3415 0 6.89675e-19
c7685 3414 0 0.00191471f
c7686 3413 0 7.82269e-19
c7687 3412 0 7.82269e-19
c7688 3411 0 7.97701e-19
c7689 3410 0 7.97701e-19
c7690 3409 0 0.0019013f
c7691 3408 0 0.0143883f
c7692 3404 0 0.00237014f
c7693 3403 0 0.00237014f
c7694 3402 0 0.00184144f
c7695 3401 0 0.00143108f
c7696 3400 0 0.00168365f
c7697 3399 0 0.00237014f
c7698 3398 0 0.00192278f
c7699 3397 0 0.0019013f
c7700 3396 0 0.00237014f
c7701 3395 0 0.00188485f
c7702 3391 0 6.89675e-19
c7703 3390 0 6.89675e-19
c7704 3389 0 0.00209029f
c7705 3385 0 0.0482837f
c7706 3383 0 0.00188485f
c7707 3382 0 0.00237014f
c7708 3381 0 0.00129684f
c7709 3380 0 0.00237014f
c7710 3379 0 0.00237014f
c7711 3378 0 0.0144756f
c7712 3374 0 0.00237014f
c7713 3373 0 0.00237014f
c7714 3372 0 0.00184144f
c7715 3371 0 0.00143108f
c7716 3370 0 0.00168365f
c7717 3369 0 0.00237014f
c7718 3368 0 0.00192278f
c7719 3367 0 0.0019013f
c7720 3366 0 0.00237014f
c7721 3365 0 0.00184144f
c7722 3364 0 0.00140436f
c7723 3363 0 8.7857e-19
c7724 3362 0 0.00184144f
c7725 3361 0 0.00164601f
c7726 3360 0 7.97701e-19
c7727 3359 0 6.89675e-19
c7728 3358 0 0.00237014f
c7729 3357 0 7.82269e-19
c7730 3356 0 7.82269e-19
c7731 3355 0 7.97701e-19
c7732 3354 0 7.97701e-19
c7733 3353 0 0.00191471f
c7734 3352 0 0.0141457f
c7735 3348 0 0.00237014f
c7736 3347 0 0.00237014f
c7737 3346 0 0.00184144f
c7738 3345 0 0.00143108f
c7739 3344 0 0.00168365f
c7740 3343 0 0.00237014f
c7741 3342 0 0.00192278f
c7742 3341 0 0.0019013f
c7743 3340 0 0.00237014f
c7744 3339 0 0.00164882f
c7745 3338 0 6.89675e-19
c7746 3337 0 6.89675e-19
c7747 3333 0 0.0483528f
c7748 3332 0 0.00237014f
c7749 3331 0 0.00188485f
c7750 3330 0 0.00237014f
c7751 3329 0 0.00129684f
c7752 3328 0 0.00237014f
c7753 3327 0 0.00237014f
c7754 3326 0 0.00184144f
c7755 3325 0 0.00184144f
c7756 3324 0 0.0143615f
c7757 3320 0 0.00237014f
c7758 3319 0 0.00237014f
c7759 3318 0 0.00184144f
c7760 3317 0 0.00143108f
c7761 3316 0 0.00168365f
c7762 3315 0 0.00237014f
c7763 3314 0 0.00192278f
c7764 3313 0 0.0019013f
c7765 3312 0 0.00237014f
c7766 3311 0 0.00188485f
c7767 3307 0 0.00164601f
c7768 3305 0 0.00558211f
c7769 3304 0 0.00237014f
c7770 3303 0 0.00191471f
c7771 3302 0 0.0019013f
c7772 3301 0 6.89675e-19
c7773 3300 0 6.89675e-19
c7774 3299 0 7.82269e-19
c7775 3298 0 7.82269e-19
c7776 3297 0 7.97701e-19
c7777 3296 0 7.97701e-19
c7778 3295 0 0.00237014f
c7779 3294 0 0.0143069f
c7780 3290 0 0.00237014f
c7781 3289 0 0.00237014f
c7782 3288 0 0.00184144f
c7783 3287 0 0.00143108f
c7784 3286 0 0.00168365f
c7785 3285 0 0.00237014f
c7786 3284 0 0.00192278f
c7787 3283 0 0.0019013f
c7788 3282 0 0.00237014f
c7789 3281 0 0.00188485f
c7790 3280 0 0.00172216f
c7791 3276 0 6.89675e-19
c7792 3275 0 6.89675e-19
c7793 3274 0 0.00211728f
c7794 3270 0 0.0482345f
c7795 3269 0 0.00231834f
c7796 3267 0 0.00129684f
c7797 3266 0 0.00237014f
c7798 3265 0 0.00237014f
c7799 3264 0 0.00184144f
c7800 3263 0 0.0141063f
c7801 3259 0 0.00237014f
c7802 3258 0 0.00237014f
c7803 3257 0 0.00184144f
c7804 3256 0 0.00143108f
c7805 3255 0 0.00168365f
c7806 3254 0 0.00237014f
c7807 3253 0 0.00192278f
c7808 3252 0 0.0019013f
c7809 3251 0 0.00237014f
c7810 3250 0 0.00184144f
c7811 3249 0 0.00140436f
c7812 3247 0 0.00415869f
c7813 3246 0 0.00164601f
c7814 3245 0 0.00237014f
c7815 3244 0 0.00191471f
c7816 3243 0 6.89675e-19
c7817 3242 0 6.89675e-19
c7818 3241 0 0.0019013f
c7819 3240 0 7.82269e-19
c7820 3239 0 7.82269e-19
c7821 3238 0 7.97701e-19
c7822 3237 0 7.97701e-19
c7823 3236 0 0.0143704f
c7824 3232 0 0.00237014f
c7825 3231 0 0.00237014f
c7826 3230 0 0.00184144f
c7827 3229 0 0.00143108f
c7828 3228 0 0.00168365f
c7829 3227 0 0.00237014f
c7830 3226 0 0.00192278f
c7831 3225 0 0.0019013f
c7832 3224 0 0.00237014f
c7833 3223 0 0.00213861f
c7834 3222 0 6.89675e-19
c7835 3221 0 6.89675e-19
c7836 3220 0 0.00174045f
c7837 3216 0 0.0481033f
c7838 3214 0 0.00237014f
c7839 3213 0 0.00129684f
c7840 3212 0 0.00237014f
c7841 3211 0 0.00237014f
c7842 3210 0 0.00184144f
c7843 3209 0 0.014245f
c7844 3205 0 0.00237014f
c7845 3204 0 0.00237014f
c7846 3203 0 0.00184144f
c7847 3202 0 0.00142031f
c7848 3201 0 0.00167861f
c7849 3200 0 0.00237014f
c7850 3199 0 0.00192682f
c7851 3198 0 0.0019013f
c7852 3197 0 0.00237014f
c7853 3196 0 0.00188485f
c7854 3195 0 0.00184144f
c7855 3190 0 0.00558036f
c7856 3189 0 0.00164601f
c7857 3188 0 0.00237014f
c7858 3187 0 0.00191471f
c7859 3186 0 6.89675e-19
c7860 3185 0 6.89675e-19
c7861 3184 0 7.82269e-19
c7862 3183 0 7.82269e-19
c7863 3182 0 0.0019013f
c7864 3181 0 7.97701e-19
c7865 3180 0 7.97701e-19
c7866 3179 0 0.014265f
c7867 3175 0 0.00237014f
c7868 3174 0 0.00237014f
c7869 3173 0 0.00184144f
c7870 3172 0 0.00142031f
c7871 3171 0 0.00167861f
c7872 3170 0 0.00237014f
c7873 3169 0 0.00192682f
c7874 3168 0 0.0019013f
c7875 3167 0 0.00237014f
c7876 3166 0 0.00188485f
c7877 3165 0 0.00211883f
c7878 3161 0 6.89675e-19
c7879 3160 0 6.89675e-19
c7880 3159 0 0.00174045f
c7881 3155 0 0.0482507f
c7882 3153 0 0.07967f
c7883 3152 0 3.7809e-19
c7884 3151 0 0.00104991f
c7885 3150 0 0.00162287f
c7886 3149 0 0.00237014f
c7887 3148 0 0.00184144f
c7888 3147 0 0.0137915f
c7889 3143 0 0.00237014f
c7890 3142 0 0.00237014f
c7891 3141 0 0.00184144f
c7892 3140 0 0.00141562f
c7893 3139 0 0.00167641f
c7894 3138 0 0.00237014f
c7895 3137 0 0.00192278f
c7896 3136 0 0.0019013f
c7897 3135 0 0.00237014f
c7898 3134 0 0.00184144f
c7899 3133 0 0.00140436f
c7900 3132 0 8.7857e-19
c7901 3131 0 0.00164601f
c7902 3130 0 0.00237014f
c7903 3129 0 7.97701e-19
c7904 3128 0 6.89675e-19
c7905 3127 0 0.00191471f
c7906 3126 0 7.82269e-19
c7907 3125 0 7.82269e-19
c7908 3124 0 7.97701e-19
c7909 3123 0 7.97701e-19
c7910 3122 0 0.0019013f
c7911 3121 0 0.0144236f
c7912 3117 0 0.00237014f
c7913 3116 0 0.00237014f
c7914 3115 0 0.00184144f
c7915 3114 0 0.0013573f
c7916 3113 0 0.00167641f
c7917 3112 0 0.00237014f
c7918 3111 0 0.00191471f
c7919 3110 0 0.0019013f
c7920 3109 0 0.00237014f
c7921 3108 0 6.89675e-19
c7922 3107 0 6.89675e-19
c7923 3106 0 0.00211883f
c7924 3102 0 0.0483528f
c7925 3101 0 0.00188485f
c7926 3051 0 0.00532233f
c7927 3049 0 0.0140187f
c7928 3047 0 0.0204183f
c7929 3045 0 0.0108183f
c7930 3043 0 0.0137034f
c7931 3041 0 0.00845679f
c7932 3039 0 0.0193421f
c7933 3037 0 0.0169031f
c7934 3035 0 0.00889334f
c7935 3033 0 0.0275241f
c7936 3031 0 0.00989794f
c7937 3029 0 0.00185792f
c7938 3027 0 0.0108666f
c7939 3019 0 0.0117355f
c7940 3013 0 0.00956301f
c7941 3005 0 0.00720068f
c7942 3003 0 0.0302315f
c7943 2997 0 0.00853371f
c7944 2991 0 0.0169803f
c7945 2986 0 0.0107661f
c7946 2984 0 0.0302797f
c7947 2982 0 0.00853371f
c7948 2980 0 0.0178547f
c7949 2978 0 0.0170935f
c7950 2976 0 0.00922289f
c7951 2974 0 0.0137034f
c7952 2972 0 0.010563f
c7953 2970 0 0.0202857f
c7954 2968 0 0.0140187f
c7955 2966 0 0.011124f
c7956 2963 0 0.00989782f
c7957 2959 0 0.00344893f
c7958 2950 0 0.0188493f
c7959 2946 0 0.00908774f
c7960 2942 0 0.00714503f
c7961 2938 0 0.00694372f
c7962 2934 0 0.00947881f
c7963 2930 0 0.00499174f
c7964 2926 0 0.00421924f
c7965 2922 0 0.00535321f
c7966 2918 0 0.00535787f
c7967 2914 0 0.00511977f
c7968 2910 0 0.00674988f
c7969 2901 0 0.0190509f
c7970 2887 0 0.00907811f
c7971 2881 0 0.0137034f
c7972 2875 0 0.0306668f
c7973 2873 0 0.0240504f
c7974 2871 0 0.0107033f
c7975 2857 0 0.00391068f
c7976 2855 0 0.0037059f
c7977 2845 0 0.00157704f
c7978 2843 0 0.00157704f
c7979 2833 0 0.0202857f
c7980 2828 0 0.0107731f
c7981 2826 0 0.0302797f
c7982 2824 0 0.00853371f
c7983 2822 0 0.0179106f
c7984 2820 0 0.0172512f
c7985 2818 0 0.00922289f
c7986 2816 0 0.0137034f
c7987 2814 0 0.010563f
c7988 2812 0 0.0202857f
c7989 2810 0 0.0140187f
c7990 2808 0 0.011124f
c7991 2805 0 0.00913425f
c7992 2803 0 0.0129563f
c7993 2799 0 0.00344893f
c7994 2797 0 0.0109977f
c7995 2795 0 0.0107687f
c7996 2782 0 0.0188493f
c7997 2778 0 0.00908774f
c7998 2774 0 0.00714503f
c7999 2770 0 0.00694372f
c8000 2766 0 0.00966734f
c8001 2762 0 0.00499174f
c8002 2758 0 0.00421924f
c8003 2754 0 0.00535321f
c8004 2750 0 0.00535787f
c8005 2746 0 0.00511977f
c8006 2742 0 0.00674988f
c8007 2732 0 0.00683849f
c8008 2731 0 0.00291546f
c8009 2730 0 0.00604271f
c8010 2726 0 0.0130317f
c8011 2719 0 0.00359935f
c8012 2713 0 0.00956301f
c8013 2707 0 0.0302315f
c8014 2701 0 0.00853371f
c8015 2683 0 0.0107731f
c8016 2681 0 0.0302797f
c8017 2679 0 0.00853371f
c8018 2677 0 0.0179106f
c8019 2675 0 0.0172512f
c8020 2673 0 0.00922289f
c8021 2671 0 0.0137034f
c8022 2669 0 0.010563f
c8023 2667 0 0.0202857f
c8024 2665 0 0.0140187f
c8025 2662 0 0.0169803f
c8026 2645 0 0.0188493f
c8027 2641 0 0.00908774f
c8028 2637 0 0.00714503f
c8029 2633 0 0.00694372f
c8030 2629 0 0.00966734f
c8031 2625 0 0.00499174f
c8032 2621 0 0.00421924f
c8033 2617 0 0.00535321f
c8034 2613 0 0.00535787f
c8035 2609 0 0.00511977f
c8036 2605 0 0.0113937f
c8037 2601 0 0.0225932f
c8038 2591 0 0.0190509f
c8039 2585 0 0.00907811f
c8040 2579 0 0.0137034f
c8041 2573 0 0.0245663f
c8042 2571 0 0.0245724f
c8043 2561 0 0.0107033f
c8044 2559 0 0.00391068f
c8045 2557 0 0.0037059f
c8046 2543 0 0.00157704f
c8047 2541 0 0.00157704f
c8048 2532 0 0.0107731f
c8049 2530 0 0.0302797f
c8050 2528 0 0.00853371f
c8051 2526 0 0.0179106f
c8052 2524 0 0.0172512f
c8053 2522 0 0.00922289f
c8054 2520 0 0.0137034f
c8055 2518 0 0.010563f
c8056 2516 0 0.0202857f
c8057 2514 0 0.0140187f
c8058 2511 0 0.0198189f
c8059 2505 0 0.0109977f
c8060 2503 0 0.0107687f
c8061 2494 0 0.0188493f
c8062 2490 0 0.00908774f
c8063 2486 0 0.00714503f
c8064 2482 0 0.00694372f
c8065 2478 0 0.00966734f
c8066 2474 0 0.00499174f
c8067 2470 0 0.00421924f
c8068 2466 0 0.00535321f
c8069 2462 0 0.00535787f
c8070 2458 0 0.00511977f
c8071 2454 0 0.0113937f
c8072 2444 0 0.012177f
c8073 2438 0 0.00753383f
c8074 2437 0 0.00291546f
c8075 2436 0 0.00604271f
c8076 2432 0 0.0193019f
c8077 2425 0 0.00359935f
c8078 2419 0 0.00956301f
c8079 2413 0 0.0302315f
c8080 2407 0 0.00853371f
c8081 2402 0 0.0107731f
c8082 2400 0 0.0302797f
c8083 2398 0 0.00853371f
c8084 2396 0 0.0179106f
c8085 2394 0 0.0172512f
c8086 2392 0 0.00922289f
c8087 2390 0 0.0137034f
c8088 2388 0 0.010563f
c8089 2386 0 0.0202857f
c8090 2384 0 0.0140187f
c8091 2382 0 0.011124f
c8092 2379 0 0.00989782f
c8093 2375 0 0.00344893f
c8094 2366 0 0.0188493f
c8095 2362 0 0.00908774f
c8096 2358 0 0.00714503f
c8097 2354 0 0.00694372f
c8098 2350 0 0.00966734f
c8099 2346 0 0.00499174f
c8100 2342 0 0.00421924f
c8101 2338 0 0.00535321f
c8102 2334 0 0.00535787f
c8103 2330 0 0.00511977f
c8104 2326 0 0.00674988f
c8105 2317 0 0.0169803f
c8106 2303 0 0.0190509f
c8107 2297 0 0.00907811f
c8108 2291 0 0.0306795f
c8109 2289 0 0.024054f
c8110 2279 0 0.0137034f
c8111 2273 0 0.00391068f
c8112 2271 0 0.00370757f
c8113 2261 0 0.00157704f
c8114 2259 0 0.00157704f
c8115 2249 0 0.0107033f
c8116 2244 0 0.0107731f
c8117 2242 0 0.0302797f
c8118 2240 0 0.00853371f
c8119 2238 0 0.0179106f
c8120 2236 0 0.0172512f
c8121 2234 0 0.00922289f
c8122 2232 0 0.0137034f
c8123 2230 0 0.010563f
c8124 2228 0 0.0202857f
c8125 2226 0 0.0140187f
c8126 2224 0 0.011124f
c8127 2221 0 0.00915849f
c8128 2217 0 0.00344893f
c8129 2215 0 0.0109977f
c8130 2213 0 0.0107719f
c8131 2204 0 0.0188493f
c8132 2200 0 0.00908774f
c8133 2196 0 0.00714503f
c8134 2192 0 0.00694372f
c8135 2188 0 0.00966734f
c8136 2184 0 0.00499174f
c8137 2180 0 0.00421924f
c8138 2176 0 0.00535321f
c8139 2172 0 0.00535787f
c8140 2168 0 0.00511977f
c8141 2164 0 0.00674988f
c8142 2154 0 0.0197338f
c8143 2148 0 0.00690723f
c8144 2147 0 0.00277446f
c8145 2146 0 0.00604364f
c8146 2142 0 0.0128656f
c8147 2136 0 0.0153451f
c8148 2129 0 0.00359935f
c8149 2123 0 0.00956301f
c8150 2111 0 0.0302315f
c8151 2099 0 0.0107731f
c8152 2097 0 0.0302797f
c8153 2095 0 0.00853371f
c8154 2093 0 0.0179106f
c8155 2091 0 0.0172512f
c8156 2089 0 0.00922289f
c8157 2087 0 0.0137034f
c8158 2085 0 0.010563f
c8159 2083 0 0.0202857f
c8160 2081 0 0.0140187f
c8161 2078 0 0.00853371f
c8162 2061 0 0.0188493f
c8163 2057 0 0.00908774f
c8164 2053 0 0.00714503f
c8165 2049 0 0.00694372f
c8166 2045 0 0.00966734f
c8167 2041 0 0.00499174f
c8168 2037 0 0.00421924f
c8169 2033 0 0.00535321f
c8170 2029 0 0.00535787f
c8171 2025 0 0.00511977f
c8172 2021 0 0.0113937f
c8173 2019 0 0.0225932f
c8174 2007 0 0.0169803f
c8175 2001 0 0.0190509f
c8176 1995 0 0.0280656f
c8177 1994 0 0.00437378f
c8178 1991 0 0.0043894f
c8179 1987 0 0.0250943f
c8180 1977 0 0.00907811f
c8181 1971 0 0.00391068f
c8182 1969 0 0.00370197f
c8183 1959 0 0.00157704f
c8184 1957 0 0.00157704f
c8185 1955 0 0.0137034f
c8186 1941 0 0.0107033f
c8187 1940 0 0.0107731f
c8188 1938 0 0.0302797f
c8189 1936 0 0.00853371f
c8190 1934 0 0.0179106f
c8191 1932 0 0.0172512f
c8192 1930 0 0.00922289f
c8193 1928 0 0.0137034f
c8194 1926 0 0.010563f
c8195 1924 0 0.0202857f
c8196 1922 0 0.0140162f
c8197 1915 0 0.0134552f
c8198 1914 0 0.00379235f
c8199 1910 0 0.0110459f
c8200 1901 0 0.0188493f
c8201 1897 0 0.00908774f
c8202 1893 0 0.00714503f
c8203 1889 0 0.00694372f
c8204 1885 0 0.00966734f
c8205 1881 0 0.00499174f
c8206 1877 0 0.00421924f
c8207 1873 0 0.00535321f
c8208 1869 0 0.00535787f
c8209 1865 0 0.00511938f
c8210 1861 0 0.0113937f
c8211 1851 0 0.00765264f
c8212 1849 0 0.00618593f
c8213 1842 0 0.00693651f
c8214 1840 0 0.0206097f
c8215 1834 0 0.0139704f
c8216 1828 0 0.0294523f
c8217 1821 0 0.00359935f
c8218 1815 0 0.00956301f
c8219 1809 0 0.0302315f
c8220 1796 0 0.00853371f
c8221 1790 0 0.0169803f
c8222 1785 0 0.0107731f
c8223 1783 0 0.0302797f
c8224 1781 0 0.00853371f
c8225 1779 0 0.0179106f
c8226 1777 0 0.0172512f
c8227 1775 0 0.00922289f
c8228 1773 0 0.0137034f
c8229 1771 0 0.010563f
c8230 1769 0 0.0202857f
c8231 1767 0 0.0140187f
c8232 1765 0 0.011124f
c8233 1762 0 0.00989782f
c8234 1758 0 0.00344893f
c8235 1749 0 0.0188493f
c8236 1745 0 0.00908774f
c8237 1741 0 0.00714503f
c8238 1737 0 0.00694372f
c8239 1733 0 0.00966734f
c8240 1729 0 0.00499174f
c8241 1725 0 0.00421924f
c8242 1721 0 0.00535321f
c8243 1717 0 0.00535787f
c8244 1713 0 0.00511977f
c8245 1709 0 0.00674988f
c8246 1700 0 0.0190509f
c8247 1686 0 0.00907811f
c8248 1680 0 0.0137034f
c8249 1674 0 0.0107033f
c8250 1672 0 0.0299744f
c8251 1670 0 0.0245132f
c8252 1656 0 0.00391068f
c8253 1654 0 0.0039114f
c8254 1644 0 0.00157704f
c8255 1642 0 0.00157704f
c8256 1632 0 0.0202857f
c8257 1627 0 0.0107731f
c8258 1625 0 0.0302797f
c8259 1623 0 0.00853371f
c8260 1621 0 0.0179106f
c8261 1619 0 0.0172512f
c8262 1617 0 0.00922289f
c8263 1615 0 0.0137034f
c8264 1613 0 0.010563f
c8265 1611 0 0.0202857f
c8266 1609 0 0.0140187f
c8267 1607 0 0.011124f
c8268 1604 0 0.0132438f
c8269 1602 0 0.00913425f
c8270 1594 0 0.00344893f
c8271 1592 0 0.0109977f
c8272 1590 0 0.0111242f
c8273 1581 0 0.0188493f
c8274 1577 0 0.00908774f
c8275 1573 0 0.00714503f
c8276 1569 0 0.00694372f
c8277 1565 0 0.00966734f
c8278 1561 0 0.00499174f
c8279 1557 0 0.00421924f
c8280 1553 0 0.00535321f
c8281 1549 0 0.00535787f
c8282 1545 0 0.00511977f
c8283 1541 0 0.00674988f
c8284 1531 0 0.0104416f
c8285 1529 0 0.00683849f
c8286 1527 0 0.00615672f
c8287 1513 0 0.00297689f
c8288 1507 0 0.00956301f
c8289 1501 0 0.0302315f
c8290 1495 0 0.00853371f
c8291 1485 0 0.0169803f
c8292 1477 0 0.0107731f
c8293 1475 0 0.0302797f
c8294 1473 0 0.00853371f
c8295 1471 0 0.0179106f
c8296 1469 0 0.0172512f
c8297 1467 0 0.00922289f
c8298 1465 0 0.0137034f
c8299 1463 0 0.010563f
c8300 1461 0 0.0202857f
c8301 1459 0 0.0140187f
c8302 1441 0 0.0188493f
c8303 1437 0 0.00908774f
c8304 1433 0 0.00714503f
c8305 1429 0 0.00694372f
c8306 1425 0 0.00966734f
c8307 1421 0 0.00499174f
c8308 1417 0 0.00421924f
c8309 1413 0 0.00535321f
c8310 1409 0 0.00535787f
c8311 1405 0 0.00511977f
c8312 1401 0 0.0113937f
c8313 1397 0 0.0230502f
c8314 1387 0 0.0190509f
c8315 1381 0 0.00907811f
c8316 1375 0 0.0137034f
c8317 1369 0 0.0245662f
c8318 1367 0 0.0250136f
c8319 1357 0 0.0107033f
c8320 1351 0 0.00391067f
c8321 1349 0 0.00391134f
c8322 1339 0 0.00157704f
c8323 1337 0 0.00157704f
c8324 1327 0 0.0202141f
c8325 1326 0 0.0107731f
c8326 1324 0 0.0302797f
c8327 1322 0 0.00853371f
c8328 1320 0 0.0179106f
c8329 1318 0 0.0172512f
c8330 1316 0 0.00922289f
c8331 1314 0 0.0137034f
c8332 1312 0 0.010563f
c8333 1310 0 0.0202857f
c8334 1308 0 0.0140187f
c8335 1301 0 0.0109976f
c8336 1299 0 0.0110941f
c8337 1290 0 0.0188493f
c8338 1286 0 0.00908774f
c8339 1282 0 0.00714503f
c8340 1278 0 0.00694372f
c8341 1274 0 0.00966734f
c8342 1270 0 0.00499174f
c8343 1266 0 0.00421924f
c8344 1262 0 0.00535321f
c8345 1258 0 0.00535787f
c8346 1254 0 0.00511977f
c8347 1250 0 0.0118452f
c8348 1240 0 0.012257f
c8349 1234 0 0.00753383f
c8350 1232 0 0.00615669f
c8351 1227 0 0.00368965f
c8352 1225 0 0.00927209f
c8353 1218 0 0.00359935f
c8354 1212 0 0.00956301f
c8355 1206 0 0.0302315f
c8356 1200 0 0.00853371f